/*---------------------------------------------------------------------------*\
| =========                 |                                                 |
| \\      /  F ield         | OpenFOAM: The Open Source CFD Toolbox           |
|  \\    /   O peration     | Version:  2.3.0                                 |
|   \\  /    A nd           | Web:      www.OpenFOAM.org                      |
|    \\/     M anipulation  |                                                 |
\*---------------------------------------------------------------------------*/
Build  : 2.3.0-f5222ca19ce6
Exec   : plicBinIsoThermTransLLEFlowFoam
Date   : Jun 16 2018
Time   : 19:55:26
Host   : "node42"
PID    : 21428
Case   : /home/r_ashwin/OpenFOAM/r_ashwin-2.3.0/run/sml2D8
nProcs : 1
sigFpe : Enabling floating point exception trapping (FOAM_SIGFPE).
fileModificationChecking : Monitoring run-time modified files using timeStampMaster
allowSystemOperations : Disallowing user-supplied system call operations

// * * * * * * * * * * * * * * * * * * * * * * * * * * * * * * * * * * * * * //
Create time

Create mesh for time = 0

Reading field p_rgh

Number of species 2
n_pseudoSpecies_db = 0  n_purespecies_db = 23
Species indices in database:  11  18  
Species group indices in database:  0  0  
Done initialize UMFPACK
Initializing field P_thermo

Initializing field Pf_thermo

Reading field alpha1

Initializing field alpha1_old

Calculating field alpha0

Reading field U

Reading/calculating face flux field phi

Reading transportProperties

Reading diffusivity D10
Reading diffusivity D00
Reading diffusivity D11
Reading diffusivity D01
Initializing field Dij100
Initializing field Dij000
Initializing field Dij101
Initializing field Dij001
Initializing field D10
Initializing field D00
Initializing field D1f0
Initializing field D0f0
Initializing field Dij110
Initializing field Dij010
Initializing field Dij111
Initializing field Dij011
Initializing field D11
Initializing field D01
Initializing field D1f1
Initializing field D0f1
Reading field Y10
Initializing field x10
Initializing field c10
Initializing field C10
Initializing field C1_old0
Initializing field c1_old0
Reading field Y00
Initializing field x00
Initializing field c00
Initializing field C00
Initializing field C0_old0
Initializing field c0_old0
Initializing field C_phAvg0
Reading field Y11
Initializing field x11
Initializing field c11
Initializing field C11
Initializing field C1_old1
Initializing field c1_old1
Reading field Y01
Initializing field x01
Initializing field c01
Initializing field C01
Initializing field C0_old1
Initializing field c0_old1
Initializing field C_phAvg1
Reading field T1
Reading field T0
Tolerance values for plic:
ALPHA_2PH_MIN:    1e-06
GRADALPHA_MIN:    0.001
ALPHA_TOL:        1e-12
DIST_TOL:         1e-15
PT_DIST_TOL:      1e-15
MAX_BRENT_ITERS:  512


Reading g
Calculating field g.h

Initializing field advFlux_Y10
Initializing field advFlux_Y00
Initializing field gradf_Y10
Initializing field gradf_Y00
Initializing field diffFlux_Y10
Initializing field diffTerm_Y10
Initializing field diffFlux_Y00
Initializing field diffTerm_Y00
Initializing field gradf_Y11
Initializing field gradf_Y01
Initializing field diffFlux_Y11
Initializing field diffTerm_Y11
Initializing field diffFlux_Y01
Initializing field diffTerm_Y01
Initializing field gradf_T1
Initializing field gradf_T0
Initializing field Ys10
Initializing field Ys00
Initializing field Js10
Initializing field Js00
Initializing field mS10
Initializing field mS00
Initializing field Ys11
Initializing field Ys01
Initializing field Js11
Initializing field Js01
Initializing field mS11
Initializing field mS01
Initializing field JsTot
Initializing field mS1Tot
Initializing field mS0Tot
Initializing field alphaS1
Initializing field alphaS0
Initializing field pS
Done correcting thermo and transport props
Done gradients and face interpolations for diffusion
DICPCG:  Solving for pcorr, Initial residual = 0.99999999999, Final residual = 8.04102761977e-13, No Iterations 46
time step continuity errors : sum local = 2.83590471961e-15, global = 1.30054764278e-16, cumulative = 1.30054764278e-16
Courant Number mean: 0.1 max: 0.1
Diffusion Courant Number mean: 0.000122383961465 max: 0.0489535845861
deltaT = 0.00333333333333

Starting time loop

Courant Number mean: 0.333333333333 max: 0.333333333333
Diffusion Courant Number mean: 0.000407946538218 max: 0.163178615287
deltaT = 0.00333333333333
Time = 0.00333333

Outer corrector 1
Phase-1 C[0] = 392.813887726
Min(C1i) = 0  Max(C1i) = 785.709999376
Min(Y1i) = 0  Max(Y1i) = 1
Phase-0 C[0] = 0.0411119621194
Min(C0i) = 0  Max(C0i) = 0.418205295705
Min(Y0i) = 0  Max(Y0i) = 0.00236145947968
Phase-1 C[1] = 0.341166846479
Min(C1i) = 0  Max(C1i) = 2.99159162669
Min(Y1i) = 0  Max(Y1i) = 1
Phase-0 C[1] = 88.2068898329
Min(C0i) = 0  Max(C0i) = 177.096113359
Min(Y0i) = 0.99763854052  Max(Y0i) = 1
Done Interfacial Species Transfer Source Terms Calculation
ExecutionTime = 0.04 s

Done interface reconstruction
ExecutionTime = 0.05 s

Min(rho) = 177.096113359  Max(rho) = 900
Min(mu) = 3.5e-05  Max(mu) = 0.0007
Min(muf) = 3.5e-05  Max(muf) = 0.0007

Pressure corrector 1
DICPCG:  Solving for p_rgh, Initial residual = 0.999996213942, Final residual = 9.6163559564e-16, No Iterations 49
time step continuity errors : sum local = 4.92221332064e-08, global = -1.13442562947e-09, cumulative = -1.13442549942e-09
Min(U) = (0.00701968547887 -0.000319323571549 0)  Max(U) = (0.0154795950856 3.9981704391e-05 0)
Min(p_rgh) = 29999999.5384  Max(p_rgh) = 30000000
ExecutionTime = 0.05 s
Calculating two-phase advective fluxes
ExecutionTime = 0.1 s
alpha1:  avg = 0.500562552905  min = 0  undershoot = 0  max = 1.0000000665  overshoot = 6.64977324316e-08
alpha1 after clipping:  avg = 0.500562548673
ExecutionTime = 0.1 s

C1[0]:  avg = 392.958502448
C1[0] after clipping:  avg = 392.958500083
C0[0]:  avg = 0.0408446887914
C0[0] after clipping:  avg = 0.0408446887914
Done YAdvEqns
ExecutionTime = 0.1 s

Done interface reconstruction
ExecutionTime = 0.11 s

Done correcting thermo and transport props
ExecutionTime = 0.12 s

Done gradients and face interpolations for diffusion
ExecutionTime = 0.12 s

Phase-1 Ci = 392.958502621
Min(C1i) = 0  Max(C1i) = 785.709999376
Min(Y1i) = 0  Max(Y1i) = 1
C1i undershoot = 0  C1i overshoot = 0
Y1i undershoot = 0  Y1i overshoot = 0
Phase-1 Ci after clipping = 392.958502621
Min(C1i) = 0  Max(C1i) = 785.709999376
Min(Y1i) = 0  Max(Y1i) = 1
Phase-0 Ci = 0.0408367298582
Min(C0i) = 0  Max(C0i) = 0.413868336921
Min(Y0i) = 0  Max(Y0i) = 0.00235169224717
C0i undershoot = 0  C0i overshoot = 0
Y0i undershoot = 0  Y0i overshoot = 0
Phase-0 Ci after clipping = 0.0408367298582
Min(C0i) = 0  Max(C0i) = 0.413868336921
Min(Y0i) = 0  Max(Y0i) = 0.00235169224717
Done YDiffEqns
ExecutionTime = 0.12 s



Courant Number mean: 0.309992832326 max: 0.34064331054
Diffusion Courant Number mean: 0.000407946538218 max: 0.163178615287
deltaT = 0.00333333333333
Time = 0.00666667

Outer corrector 1
Phase-1 C[0] = 392.954969044
Min(C1i) = 0  Max(C1i) = 785.709999376
Min(Y1i) = 0  Max(Y1i) = 1
Phase-0 C[0] = 0.0443703072306
Min(C0i) = 0  Max(C0i) = 0.446865593305
Min(Y0i) = 0  Max(Y0i) = 0.0025426426635
Phase-1 C[1] = 0.369667934085
Min(C1i) = 0  Max(C1i) = 2.98991298882
Min(Y1i) = 0  Max(Y1i) = 1
Phase-0 C[1] = 88.3764240157
Min(C0i) = 0  Max(C0i) = 177.096113359
Min(Y0i) = 0.997457357337  Max(Y0i) = 1
Done Interfacial Species Transfer Source Terms Calculation
ExecutionTime = 0.12 s

Done interface reconstruction
ExecutionTime = 0.13 s

Min(rho) = 177.096113359  Max(rho) = 900
Min(mu) = 3.5e-05  Max(mu) = 0.0007
Min(muf) = 3.5e-05  Max(muf) = 0.0007

Pressure corrector 1
DICPCG:  Solving for p_rgh, Initial residual = 0.0736971034577, Final residual = 2.32772835213e-16, No Iterations 48
time step continuity errors : sum local = 5.86645490176e-08, global = 7.74226289128e-10, cumulative = -3.6019921029e-10
Min(U) = (0.00939626775509 -0.000160960256754 0)  Max(U) = (0.013155039588 8.76162941741e-05 0)
Min(p_rgh) = 30000000  Max(p_rgh) = 30000000.4253
ExecutionTime = 0.13 s
Calculating two-phase advective fluxes
ExecutionTime = 0.18 s
alpha1:  avg = 0.500633618843  min = 0  undershoot = 0  max = 1.00000006743  overshoot = 6.74296123382e-08
alpha1 after clipping:  avg = 0.500633615759
ExecutionTime = 0.18 s

C1[0]:  avg = 392.986252328
C1[0] after clipping:  avg = 392.986250655
C0[0]:  avg = 0.0439749577329
C0[0] after clipping:  avg = 0.0439749577329
Done YAdvEqns
ExecutionTime = 0.18 s

Done interface reconstruction
ExecutionTime = 0.19 s

Done correcting thermo and transport props
ExecutionTime = 0.2 s

Done gradients and face interpolations for diffusion
ExecutionTime = 0.2 s

Phase-1 Ci = 392.986379518
Min(C1i) = 0  Max(C1i) = 785.709999376
Min(Y1i) = 0  Max(Y1i) = 1
C1i undershoot = 0  C1i overshoot = 0
Y1i undershoot = 0  Y1i overshoot = 0
Phase-1 Ci after clipping = 392.986379518
Min(C1i) = 0  Max(C1i) = 785.709999376
Min(Y1i) = 0  Max(Y1i) = 1
Phase-0 Ci = 0.0439749577329
Min(C0i) = 0  Max(C0i) = 0.444443682109
Min(Y0i) = 0  Max(Y0i) = 0.00252918863436
C0i undershoot = 0  C0i overshoot = 0
Y0i undershoot = 0  Y0i overshoot = 0
Phase-0 Ci after clipping = 0.0439749577329
Min(C0i) = 0  Max(C0i) = 0.444443682109
Min(Y0i) = 0  Max(Y0i) = 0.00252918863436
Done YDiffEqns
ExecutionTime = 0.2 s



Courant Number mean: 0.335091008783 max: 0.353045239282
Diffusion Courant Number mean: 0.000407946538218 max: 0.163178615287
deltaT = 0.00333333333333
Time = 0.01

Outer corrector 1
Phase-1 C[0] = 392.980891692
Min(C1i) = 0  Max(C1i) = 785.709999376
Min(Y1i) = 0  Max(Y1i) = 1
Phase-0 C[0] = 0.0494627845922
Min(C0i) = 0  Max(C0i) = 0.497821193043
Min(Y0i) = 0  Max(Y0i) = 0.00283294319184
Phase-1 C[1] = 0.412208721703
Min(C1i) = 0  Max(C1i) = 3.06687854233
Min(Y1i) = 0  Max(Y1i) = 1
Phase-0 C[1] = 88.3461205188
Min(C0i) = 0  Max(C0i) = 177.096113359
Min(Y0i) = 0.997167056808  Max(Y0i) = 1
Done Interfacial Species Transfer Source Terms Calculation
ExecutionTime = 0.2 s

Done interface reconstruction
ExecutionTime = 0.2 s

Min(rho) = 177.096113359  Max(rho) = 900
Min(mu) = 3.5e-05  Max(mu) = 0.0007
Min(muf) = 3.5e-05  Max(muf) = 0.0007

Pressure corrector 1
DICPCG:  Solving for p_rgh, Initial residual = 0.0345285284912, Final residual = 5.42211765068e-16, No Iterations 47
time step continuity errors : sum local = 5.92290215346e-08, global = -1.35484719768e-09, cumulative = -1.71504640797e-09
Min(U) = (0.00937348861087 -0.000161153909509 0)  Max(U) = (0.0118370209124 9.90768179185e-05 0)
Min(p_rgh) = 29999999.9658  Max(p_rgh) = 30000000
ExecutionTime = 0.21 s
Calculating two-phase advective fluxes
ExecutionTime = 0.26 s
alpha1:  avg = 0.500722505929  min = 0  undershoot = 0  max = 1.00000004411  overshoot = 4.41085539205e-08
alpha1 after clipping:  avg = 0.500722504064
ExecutionTime = 0.26 s

C1[0]:  avg = 393.013963914
C1[0] after clipping:  avg = 393.013963148
C0[0]:  avg = 0.0490325692734
C0[0] after clipping:  avg = 0.0490325692734
Done YAdvEqns
ExecutionTime = 0.26 s

Done interface reconstruction
ExecutionTime = 0.26 s

Done correcting thermo and transport props
ExecutionTime = 0.27 s

Done gradients and face interpolations for diffusion
ExecutionTime = 0.28 s

Phase-1 Ci = 393.014053298
Min(C1i) = 0  Max(C1i) = 785.709999376
Min(Y1i) = 0  Max(Y1i) = 1
C1i undershoot = 0  C1i overshoot = 0
Y1i undershoot = 0  Y1i overshoot = 0
Phase-1 Ci after clipping = 393.014053298
Min(C1i) = 0  Max(C1i) = 785.709999376
Min(Y1i) = 0  Max(Y1i) = 1
Phase-0 Ci = 0.0490325692734
Min(C0i) = 0  Max(C0i) = 0.496389153103
Min(Y0i) = 0  Max(Y0i) = 0.00283037258118
C0i undershoot = 0  C0i overshoot = 0
Y0i undershoot = 0  Y0i overshoot = 0
Phase-0 Ci after clipping = 0.0490325692734
Min(C0i) = 0  Max(C0i) = 0.496389153103
Min(Y0i) = 0  Max(Y0i) = 0.00283037258118
Done YDiffEqns
ExecutionTime = 0.28 s



Courant Number mean: 0.333040876652 max: 0.34068785772
Diffusion Courant Number mean: 0.000407946538218 max: 0.163178615287
deltaT = 0.00333333333333
Time = 0.0133333

Outer corrector 1
Phase-1 C[0] = 393.005488356
Min(C1i) = 0  Max(C1i) = 785.709999376
Min(Y1i) = 0  Max(Y1i) = 1
Phase-0 C[0] = 0.0575975118682
Min(C0i) = 0  Max(C0i) = 0.583814609882
Min(Y0i) = 0  Max(Y0i) = 0.00332886577793
Phase-1 C[1] = 0.476663695179
Min(C1i) = 0  Max(C1i) = 3.17827693559
Min(Y1i) = 0  Max(Y1i) = 1
Phase-0 C[1] = 88.3030328106
Min(C0i) = 0  Max(C0i) = 177.096113359
Min(Y0i) = 0.996671134222  Max(Y0i) = 1
Done Interfacial Species Transfer Source Terms Calculation
ExecutionTime = 0.29 s

Done interface reconstruction
ExecutionTime = 0.29 s

Min(rho) = 177.096113359  Max(rho) = 900
Min(mu) = 3.5e-05  Max(mu) = 0.0007
Min(muf) = 3.5e-05  Max(muf) = 0.0007

Pressure corrector 1
DICPCG:  Solving for p_rgh, Initial residual = 0.0812529456169, Final residual = 2.46651861061e-16, No Iterations 48
time step continuity errors : sum local = 5.13617579902e-08, global = -1.48873817088e-09, cumulative = -3.20378457885e-09
Min(U) = (0.00943463380969 -0.000166924880661 0)  Max(U) = (0.0110870517592 8.06986356476e-05 0)
Min(p_rgh) = 29999999.9666  Max(p_rgh) = 30000000
ExecutionTime = 0.3 s
Calculating two-phase advective fluxes
ExecutionTime = 0.35 s
alpha1:  avg = 0.500843488271  min = 0  undershoot = 0  max = 1.00000005334  overshoot = 5.3341680184e-08
alpha1 after clipping:  avg = 0.500843486647
ExecutionTime = 0.35 s

C1[0]:  avg = 393.045180617
C1[0] after clipping:  avg = 393.04518025
C0[0]:  avg = 0.0571020286391
C0[0] after clipping:  avg = 0.0571020286391
Done YAdvEqns
ExecutionTime = 0.35 s

Done interface reconstruction
ExecutionTime = 0.35 s

Done correcting thermo and transport props
ExecutionTime = 0.36 s

Done gradients and face interpolations for diffusion
ExecutionTime = 0.36 s

Phase-1 Ci = 393.045240744
Min(C1i) = 0  Max(C1i) = 785.709999376
Min(Y1i) = 0  Max(Y1i) = 1
C1i undershoot = 0  C1i overshoot = 0
Y1i undershoot = 0  Y1i overshoot = 0
Phase-1 Ci after clipping = 393.045240744
Min(C1i) = 0  Max(C1i) = 785.709999376
Min(Y1i) = 0  Max(Y1i) = 1
Phase-0 Ci = 0.0571020286391
Min(C0i) = 0  Max(C0i) = 0.580824910713
Min(Y0i) = 0  Max(Y0i) = 0.00331954644747
C0i undershoot = 0  C0i overshoot = 0
Y0i undershoot = 0  Y0i overshoot = 0
Phase-0 Ci after clipping = 0.0571020286391
Min(C0i) = 0  Max(C0i) = 0.580824910713
Min(Y0i) = 0  Max(Y0i) = 0.00331954644747
Done YDiffEqns
ExecutionTime = 0.36 s



Courant Number mean: 0.331271887421 max: 0.337090444288
Diffusion Courant Number mean: 0.000407946538218 max: 0.163178615287
deltaT = 0.00333333333333
Time = 0.0166667

Outer corrector 1
Phase-1 C[0] = 393.032000604
Min(C1i) = 0  Max(C1i) = 785.709999376
Min(Y1i) = 0  Max(Y1i) = 1
Phase-0 C[0] = 0.0703421690128
Min(C0i) = 0  Max(C0i) = 0.721705689297
Min(Y0i) = 0  Max(Y0i) = 0.00412471213413
Phase-1 C[1] = 0.57376498968
Min(C1i) = 0  Max(C1i) = 3.44425888185
Min(Y1i) = 2.22493345969e-09  Max(Y1i) = 1
Phase-0 C[1] = 88.2403062907
Min(C0i) = 0  Max(C0i) = 177.096113358
Min(Y0i) = 0.995875287866  Max(Y0i) = 1
Done Interfacial Species Transfer Source Terms Calculation
ExecutionTime = 0.36 s

Done interface reconstruction
ExecutionTime = 0.37 s

Min(rho) = 177.096113359  Max(rho) = 900
Min(mu) = 3.5e-05  Max(mu) = 0.0007
Min(muf) = 3.5e-05  Max(muf) = 0.0007

Pressure corrector 1
DICPCG:  Solving for p_rgh, Initial residual = 0.0492301122883, Final residual = 2.26816223167e-16, No Iterations 48
time step continuity errors : sum local = 5.08303844085e-08, global = -3.00550610767e-09, cumulative = -6.20929068652e-09
Min(U) = (0.00926664185539 -0.00017933683801 0)  Max(U) = (0.0106408955799 6.38988024089e-05 0)
Min(p_rgh) = 29999999.9583  Max(p_rgh) = 30000000
ExecutionTime = 0.37 s
Calculating two-phase advective fluxes
ExecutionTime = 0.42 s
alpha1:  avg = 0.501015737453  min = 0  undershoot = 0  max = 1.00000003227  overshoot = 3.22682911502e-08
alpha1 after clipping:  avg = 0.501015736489
ExecutionTime = 0.42 s

C1[0]:  avg = 393.084330922
C1[0] after clipping:  avg = 393.084330852
C0[0]:  avg = 0.0697418024905
C0[0] after clipping:  avg = 0.0697418024905
Done YAdvEqns
ExecutionTime = 0.42 s

Done interface reconstruction
ExecutionTime = 0.43 s

Done correcting thermo and transport props
ExecutionTime = 0.44 s

Done gradients and face interpolations for diffusion
ExecutionTime = 0.44 s

Phase-1 Ci = 393.08437173
Min(C1i) = 0  Max(C1i) = 785.709999376
Min(Y1i) = 0  Max(Y1i) = 1
C1i undershoot = 0  C1i overshoot = 0
Y1i undershoot = 0  Y1i overshoot = 0
Phase-1 Ci after clipping = 393.08437173
Min(C1i) = 0  Max(C1i) = 785.709999376
Min(Y1i) = 0  Max(Y1i) = 1
Phase-0 Ci = 0.0697418024905
Min(C0i) = 0  Max(C0i) = 0.715931768772
Min(Y0i) = 0  Max(Y0i) = 0.00410306021664
C0i undershoot = 0  C0i overshoot = 0
Y0i undershoot = 0  Y0i overshoot = 0
Phase-0 Ci after clipping = 0.0697418024905
Min(C0i) = 0  Max(C0i) = 0.715931768772
Min(Y0i) = 0  Max(Y0i) = 0.00410306021664
Done YDiffEqns
ExecutionTime = 0.44 s



Courant Number mean: 0.329152061425 max: 0.337607909005
Diffusion Courant Number mean: 0.000407946538218 max: 0.163178615287
deltaT = 0.00333333333333
Time = 0.02

Outer corrector 1
Phase-1 C[0] = 393.064060957
Min(C1i) = 0  Max(C1i) = 785.709999376
Min(Y1i) = 0  Max(Y1i) = 1
Phase-0 C[0] = 0.0900525758613
Min(C0i) = 0  Max(C0i) = 0.94042248012
Min(Y0i) = 0  Max(Y0i) = 0.00538963380774
Phase-1 C[1] = 0.719404121654
Min(C1i) = 0  Max(C1i) = 3.89179618409
Min(Y1i) = 7.46553363573e-09  Max(Y1i) = 1
Phase-0 C[1] = 88.1477300441
Min(C0i) = 0  Max(C0i) = 177.096113359
Min(Y0i) = 0.994610366192  Max(Y0i) = 1
Done Interfacial Species Transfer Source Terms Calculation
ExecutionTime = 0.44 s

Done interface reconstruction
ExecutionTime = 0.45 s

Min(rho) = 177.096113359  Max(rho) = 900
Min(mu) = 3.5e-05  Max(mu) = 0.0007
Min(muf) = 3.5e-05  Max(muf) = 0.0007

Pressure corrector 1
DICPCG:  Solving for p_rgh, Initial residual = 0.0356378929053, Final residual = 8.98674615808e-16, No Iterations 47
time step continuity errors : sum local = 5.35165932827e-08, global = -2.4683513458e-09, cumulative = -8.67764203233e-09
Min(U) = (0.00891355714044 -0.00021672922966 0)  Max(U) = (0.0103776410272 4.19705635208e-05 0)
Min(p_rgh) = 29999999.9427  Max(p_rgh) = 30000000
ExecutionTime = 0.45 s
Calculating two-phase advective fluxes
ExecutionTime = 0.5 s
alpha1:  avg = 0.501266351532  min = 0  undershoot = 0  max = 1.00000003702  overshoot = 3.7017115595e-08
alpha1 after clipping:  avg = 0.501266350499
ExecutionTime = 0.5 s

C1[0]:  avg = 393.136942333
C1[0] after clipping:  avg = 393.136942333
C0[0]:  avg = 0.0892914568492
C0[0] after clipping:  avg = 0.0892914568492
Done YAdvEqns
ExecutionTime = 0.5 s

Done interface reconstruction
ExecutionTime = 0.5 s

Done correcting thermo and transport props
ExecutionTime = 0.52 s

Done gradients and face interpolations for diffusion
ExecutionTime = 0.52 s

Phase-1 Ci = 393.136970629
Min(C1i) = 0  Max(C1i) = 785.709999376
Min(Y1i) = 0  Max(Y1i) = 1
C1i undershoot = 0  C1i overshoot = 0
Y1i undershoot = 0  Y1i overshoot = 0
Phase-1 Ci after clipping = 393.136970629
Min(C1i) = 0  Max(C1i) = 785.709999376
Min(Y1i) = 0  Max(Y1i) = 1
Phase-0 Ci = 0.0892914568492
Min(C0i) = 0  Max(C0i) = 0.929357349044
Min(Y0i) = 0  Max(Y0i) = 0.0053447754314
C0i undershoot = 0  C0i overshoot = 0
Y0i undershoot = 0  Y0i overshoot = 0
Phase-0 Ci after clipping = 0.0892914568492
Min(C0i) = 0  Max(C0i) = 0.929357349044
Min(Y0i) = 0  Max(Y0i) = 0.0053447754314
Done YDiffEqns
ExecutionTime = 0.52 s



Courant Number mean: 0.326289095059 max: 0.338099657824
Diffusion Courant Number mean: 0.000407946379481 max: 0.163178551792
deltaT = 0.00333333333333
Time = 0.0233333

Outer corrector 1
Phase-1 C[0] = 393.10596746
Min(C1i) = 0  Max(C1i) = 785.709999376
Min(Y1i) = 0  Max(Y1i) = 1
Phase-0 C[0] = 0.120294626664
Min(C0i) = 0  Max(C0i) = 1.28404406156
Min(Y0i) = 0  Max(Y0i) = 0.00738459448361
Phase-1 C[1] = 0.937279523613
Min(C1i) = 0  Max(C1i) = 5.11309399116
Min(Y1i) = 1.65785819517e-08  Max(Y1i) = 1
Phase-0 C[1] = 88.0102332556
Min(C0i) = 0  Max(C0i) = 177.096113359
Min(Y0i) = 0.992615405516  Max(Y0i) = 1
Done Interfacial Species Transfer Source Terms Calculation
ExecutionTime = 0.53 s

Done interface reconstruction
ExecutionTime = 0.54 s

Min(rho) = 177.096113359  Max(rho) = 900
Min(mu) = 3.5e-05  Max(mu) = 0.0007
Min(muf) = 3.5e-05  Max(muf) = 0.0007

Pressure corrector 1
DICPCG:  Solving for p_rgh, Initial residual = 0.0343630608633, Final residual = 4.82205974027e-16, No Iterations 47
time step continuity errors : sum local = 4.81233357837e-08, global = -2.16139067442e-10, cumulative = -8.89378109977e-09
Min(U) = (0.00837519477269 -0.000279656461629 0)  Max(U) = (0.0102352130867 4.92271310697e-05 0)
Min(p_rgh) = 29999999.9188  Max(p_rgh) = 30000000
ExecutionTime = 0.54 s
Calculating two-phase advective fluxes
ExecutionTime = 0.59 s
alpha1:  avg = 0.501635546879  min = 0  undershoot = 0  max = 1.00000003547  overshoot = 3.54733884489e-08
alpha1 after clipping:  avg = 0.501635546125
ExecutionTime = 0.59 s

C1[0]:  avg = 393.211077124
C1[0] after clipping:  avg = 393.211077124
C0[0]:  avg = 0.119296637342
C0[0] after clipping:  avg = 0.119296637342
Done YAdvEqns
ExecutionTime = 0.59 s

Done interface reconstruction
ExecutionTime = 0.6 s

Done correcting thermo and transport props
ExecutionTime = 0.61 s

Done gradients and face interpolations for diffusion
ExecutionTime = 0.61 s

Phase-1 Ci = 393.211097209
Min(C1i) = 0  Max(C1i) = 785.709999376
Min(Y1i) = 0  Max(Y1i) = 1
C1i undershoot = 0  C1i overshoot = 0
Y1i undershoot = 0  Y1i overshoot = 0
Phase-1 Ci after clipping = 393.211097209
Min(C1i) = 0  Max(C1i) = 785.709999376
Min(Y1i) = 0  Max(Y1i) = 1
Phase-0 Ci = 0.119296637342
Min(C0i) = 0  Max(C0i) = 1.26216988817
Min(Y0i) = 0  Max(Y0i) = 0.00729264848631
C0i undershoot = 0  C0i overshoot = 0
Y0i undershoot = 0  Y0i overshoot = 0
Phase-0 Ci after clipping = 0.119296637342
Min(C0i) = 0  Max(C0i) = 1.26216988817
Min(Y0i) = 0  Max(Y0i) = 0.00729264848631
Done YDiffEqns
ExecutionTime = 0.61 s



Courant Number mean: 0.322276235065 max: 0.338889064048
Diffusion Courant Number mean: 0.000407946439255 max: 0.163178575702
deltaT = 0.00333333333333
Time = 0.0266667

Outer corrector 1
Phase-1 C[0] = 393.173412712
Min(C1i) = 0  Max(C1i) = 785.709999376
Min(Y1i) = 0  Max(Y1i) = 1
Phase-0 C[0] = 0.156981134601
Min(C0i) = 0  Max(C0i) = 1.67011275877
Min(Y0i) = 0  Max(Y0i) = 0.00964968772932
Phase-1 C[1] = 1.19528679178
Min(C1i) = 0  Max(C1i) = 6.65775218704
Min(Y1i) = 2.53070702172e-08  Max(Y1i) = 1
Phase-0 C[1] = 87.8727918121
Min(C0i) = 0  Max(C0i) = 177.096113359
Min(Y0i) = 0.990350312271  Max(Y0i) = 1
Done Interfacial Species Transfer Source Terms Calculation
ExecutionTime = 0.61 s

Done interface reconstruction
ExecutionTime = 0.61 s

Min(rho) = 177.096113359  Max(rho) = 900
Min(mu) = 3.5e-05  Max(mu) = 0.0007
Min(muf) = 3.5e-05  Max(muf) = 0.0007

Pressure corrector 1
DICPCG:  Solving for p_rgh, Initial residual = 0.0193030534676, Final residual = 3.86379496443e-16, No Iterations 47
time step continuity errors : sum local = 5.4337221637e-08, global = 1.41585819691e-09, cumulative = -7.47792290286e-09
Min(U) = (0.00811190092895 -0.000321850820147 0)  Max(U) = (0.0101718028829 5.40449783858e-05 0)
Min(p_rgh) = 29999999.9607  Max(p_rgh) = 30000000
ExecutionTime = 0.62 s
Calculating two-phase advective fluxes
ExecutionTime = 0.67 s
alpha1:  avg = 0.502073613242  min = 0  undershoot = 0  max = 1.0000000369  overshoot = 3.69022334912e-08
alpha1 after clipping:  avg = 0.502073612046
ExecutionTime = 0.67 s

C1[0]:  avg = 393.29940662
C1[0] after clipping:  avg = 393.29940662
C0[0]:  avg = 0.155693599155
C0[0] after clipping:  avg = 0.155693599301
Done YAdvEqns
ExecutionTime = 0.67 s

Done interface reconstruction
ExecutionTime = 0.67 s

Done correcting thermo and transport props
ExecutionTime = 0.69 s

Done gradients and face interpolations for diffusion
ExecutionTime = 0.69 s

Phase-1 Ci = 393.299421219
Min(C1i) = 0  Max(C1i) = 785.709999376
Min(Y1i) = 0  Max(Y1i) = 1
C1i undershoot = 0  C1i overshoot = 0
Y1i undershoot = 0  Y1i overshoot = 0
Phase-1 Ci after clipping = 393.299421219
Min(C1i) = 0  Max(C1i) = 785.709999376
Min(Y1i) = 0  Max(Y1i) = 1
Phase-0 Ci = 0.155693599301
Min(C0i) = 0  Max(C0i) = 1.64230354975
Min(Y0i) = 0  Max(Y0i) = 0.0095364242882
C0i undershoot = 0  C0i overshoot = 0
Y0i undershoot = 0  Y0i overshoot = 0
Phase-0 Ci after clipping = 0.155693599301
Min(C0i) = 0  Max(C0i) = 1.64230354975
Min(Y0i) = 0  Max(Y0i) = 0.0095364242882
Done YDiffEqns
ExecutionTime = 0.69 s



Courant Number mean: 0.320722028336 max: 0.339762533096
Diffusion Courant Number mean: 0.000407946175491 max: 0.163178470197
deltaT = 0.00333333333333
Time = 0.03

Outer corrector 1
Phase-1 C[0] = 393.262047144
Min(C1i) = 0  Max(C1i) = 785.709999376
Min(Y1i) = 0  Max(Y1i) = 1
Phase-0 C[0] = 0.193067674278
Min(C0i) = 0  Max(C0i) = 2.04679632567
Min(Y0i) = 0  Max(Y0i) = 0.0118852073334
Phase-1 C[1] = 1.44411015436
Min(C1i) = 0  Max(C1i) = 7.74727926998
Min(Y1i) = 3.3689686707e-08  Max(Y1i) = 1
Phase-0 C[1] = 87.7658604805
Min(C0i) = 0  Max(C0i) = 177.096113359
Min(Y0i) = 0.988114792667  Max(Y0i) = 1
Done Interfacial Species Transfer Source Terms Calculation
ExecutionTime = 0.69 s

Done interface reconstruction
ExecutionTime = 0.69 s

Min(rho) = 177.096113359  Max(rho) = 900
Min(mu) = 3.5e-05  Max(mu) = 0.0007
Min(muf) = 3.5e-05  Max(muf) = 0.0007

Pressure corrector 1
DICPCG:  Solving for p_rgh, Initial residual = 0.03444701497, Final residual = 5.92706033528e-16, No Iterations 47
time step continuity errors : sum local = 5.95584293319e-08, global = 2.80103579211e-09, cumulative = -4.67688711075e-09
Min(U) = (0.00824206734879 -0.000331303066046 0)  Max(U) = (0.0101245310938 5.34148129041e-05 0)
Min(p_rgh) = 30000000  Max(p_rgh) = 30000000.0149
ExecutionTime = 0.69 s
Calculating two-phase advective fluxes
ExecutionTime = 0.75 s
alpha1:  avg = 0.502501631159  min = 0  undershoot = 0  max = 1.0000000523  overshoot = 5.22993066632e-08
alpha1 after clipping:  avg = 0.502501630009
ExecutionTime = 0.75 s

C1[0]:  avg = 393.389094236
C1[0] after clipping:  avg = 393.389094236
C0[0]:  avg = 0.191448554901
C0[0] after clipping:  avg = 0.191448554901
Done YAdvEqns
ExecutionTime = 0.75 s

Done interface reconstruction
ExecutionTime = 0.75 s

Done correcting thermo and transport props
ExecutionTime = 0.76 s

Done gradients and face interpolations for diffusion
ExecutionTime = 0.76 s

Phase-1 Ci = 393.389105062
Min(C1i) = 0  Max(C1i) = 785.709999376
Min(Y1i) = 0  Max(Y1i) = 1
C1i undershoot = 0  C1i overshoot = 0
Y1i undershoot = 0  Y1i overshoot = 0
Phase-1 Ci after clipping = 393.389105062
Min(C1i) = 0  Max(C1i) = 785.709999376
Min(Y1i) = 0  Max(Y1i) = 1
Phase-0 Ci = 0.191448554901
Min(C0i) = 0  Max(C0i) = 2.01493738577
Min(Y0i) = 0  Max(Y0i) = 0.0117553650557
C0i undershoot = 0  C0i overshoot = 0
Y0i undershoot = 0  Y0i overshoot = 0
Phase-0 Ci after clipping = 0.191448554901
Min(C0i) = 0  Max(C0i) = 2.01493738577
Min(Y0i) = 0  Max(Y0i) = 0.0117553650557
Done YDiffEqns
ExecutionTime = 0.76 s



Courant Number mean: 0.322078169872 max: 0.339622980716
Diffusion Courant Number mean: 0.000407945984798 max: 0.163178393919
deltaT = 0.00333333333333
Time = 0.0333333

Outer corrector 1
Phase-1 C[0] = 393.352067654
Min(C1i) = 0  Max(C1i) = 785.709999376
Min(Y1i) = 0  Max(Y1i) = 1
Phase-0 C[0] = 0.228485962403
Min(C0i) = 0  Max(C0i) = 2.41599703798
Min(Y0i) = 0  Max(Y0i) = 0.0141099736726
Phase-1 C[1] = 1.68462027945
Min(C1i) = 0  Max(C1i) = 8.86485253763
Min(Y1i) = 4.46782500996e-08  Max(Y1i) = 1
Phase-0 C[1] = 87.6604092324
Min(C0i) = 0  Max(C0i) = 177.096113359
Min(Y0i) = 0.985890026327  Max(Y0i) = 1
Done Interfacial Species Transfer Source Terms Calculation
ExecutionTime = 0.78 s

Done interface reconstruction
ExecutionTime = 0.78 s

Min(rho) = 177.096113359  Max(rho) = 900
Min(mu) = 3.5e-05  Max(mu) = 0.0007
Min(muf) = 3.5e-05  Max(muf) = 0.0007

Pressure corrector 1
DICPCG:  Solving for p_rgh, Initial residual = 0.0267089131975, Final residual = 3.99435814445e-16, No Iterations 47
time step continuity errors : sum local = 6.23915134172e-08, global = 5.38896273108e-10, cumulative = -4.13799083764e-09
Min(U) = (0.00834766296727 -0.000333923867287 0)  Max(U) = (0.0100893694205 5.45158163701e-05 0)
Min(p_rgh) = 30000000  Max(p_rgh) = 30000000.0117
ExecutionTime = 0.78 s
Calculating two-phase advective fluxes
ExecutionTime = 0.83 s
alpha1:  avg = 0.502920278036  min = 0  undershoot = 0  max = 1.0000000803  overshoot = 8.03003863403e-08
alpha1 after clipping:  avg = 0.502920276605
ExecutionTime = 0.83 s

C1[0]:  avg = 393.479678682
C1[0] after clipping:  avg = 393.479678682
C0[0]:  avg = 0.226542514944
C0[0] after clipping:  avg = 0.226542515278
Done YAdvEqns
ExecutionTime = 0.83 s

Done interface reconstruction
ExecutionTime = 0.83 s

Done correcting thermo and transport props
ExecutionTime = 0.85 s

Done gradients and face interpolations for diffusion
ExecutionTime = 0.85 s

Phase-1 Ci = 393.479678682
Min(C1i) = 0  Max(C1i) = 785.709999376
Min(Y1i) = 0  Max(Y1i) = 1
C1i undershoot = 0  C1i overshoot = 0
Y1i undershoot = 0  Y1i overshoot = 0
Phase-1 Ci after clipping = 393.479678682
Min(C1i) = 0  Max(C1i) = 785.709999376
Min(Y1i) = 0  Max(Y1i) = 1
Phase-0 Ci = 0.226542515278
Min(C0i) = 0  Max(C0i) = 2.38069103029
Min(Y0i) = 0  Max(Y0i) = 0.0139512546395
C0i undershoot = 0  C0i overshoot = 0
Y0i undershoot = 0  Y0i overshoot = 0
Phase-0 Ci after clipping = 0.226542515278
Min(C0i) = 0  Max(C0i) = 2.38069103029
Min(Y0i) = 0  Max(Y0i) = 0.0139512546395
Done YDiffEqns
ExecutionTime = 0.85 s



Courant Number mean: 0.323126462647 max: 0.339359226082
Diffusion Courant Number mean: 0.000407946011119 max: 0.163178404447
deltaT = 0.00333333333333
Time = 0.0366667

Outer corrector 1
Phase-1 C[0] = 393.442986879
Min(C1i) = 0  Max(C1i) = 785.709999376
Min(Y1i) = 0  Max(Y1i) = 1
Phase-0 C[0] = 0.263234318205
Min(C0i) = 0  Max(C0i) = 2.77857283762
Min(Y0i) = 0  Max(Y0i) = 0.0163253371906
Phase-1 C[1] = 1.91716236596
Min(C1i) = 0  Max(C1i) = 10.7209010431
Min(Y1i) = 4.54720346932e-08  Max(Y1i) = 1
Phase-0 C[1] = 87.5569936965
Min(C0i) = 0  Max(C0i) = 177.096113359
Min(Y0i) = 0.983674662809  Max(Y0i) = 1
Done Interfacial Species Transfer Source Terms Calculation
ExecutionTime = 0.85 s

Done interface reconstruction
ExecutionTime = 0.85 s

Min(rho) = 177.096113359  Max(rho) = 900
Min(mu) = 3.5e-05  Max(mu) = 0.0007
Min(muf) = 3.5e-05  Max(muf) = 0.0007

Pressure corrector 1
DICPCG:  Solving for p_rgh, Initial residual = 0.0183236141667, Final residual = 2.78255273876e-16, No Iterations 47
time step continuity errors : sum local = 5.10883673334e-08, global = 5.51275557023e-10, cumulative = -3.58671528062e-09
Min(U) = (0.00844423806248 -0.000334789727985 0)  Max(U) = (0.0100630850081 5.54390450413e-05 0)
Min(p_rgh) = 30000000  Max(p_rgh) = 30000000.0106
ExecutionTime = 0.85 s
Calculating two-phase advective fluxes
ExecutionTime = 0.91 s
alpha1:  avg = 0.503329422016  min = 0  undershoot = 0  max = 1.00000003337  overshoot = 3.33731566826e-08
alpha1 after clipping:  avg = 0.503329421044
ExecutionTime = 0.91 s

C1[0]:  avg = 393.570711102
C1[0] after clipping:  avg = 393.570711102
C0[0]:  avg = 0.260970573345
C0[0] after clipping:  avg = 0.260970573345
Done YAdvEqns
ExecutionTime = 0.91 s

Done interface reconstruction
ExecutionTime = 0.91 s

Done correcting thermo and transport props
ExecutionTime = 0.92 s

Done gradients and face interpolations for diffusion
ExecutionTime = 0.92 s

Phase-1 Ci = 393.570711102
Min(C1i) = 0  Max(C1i) = 785.709999376
Min(Y1i) = 0  Max(Y1i) = 1
C1i undershoot = 0  C1i overshoot = 0
Y1i undershoot = 0  Y1i overshoot = 0
Phase-1 Ci after clipping = 393.570711102
Min(C1i) = 0  Max(C1i) = 785.709999376
Min(Y1i) = 0  Max(Y1i) = 1
Phase-0 Ci = 0.260970573345
Min(C0i) = 0  Max(C0i) = 2.73987431215
Min(Y0i) = 0  Max(Y0i) = 0.0161241647175
C0i undershoot = 0  C0i overshoot = 0
Y0i undershoot = 0  Y0i overshoot = 0
Phase-0 Ci after clipping = 0.260970573345
Min(C0i) = 0  Max(C0i) = 2.73987431215
Min(Y0i) = 0  Max(Y0i) = 0.0161241647175
Done YDiffEqns
ExecutionTime = 0.92 s



Courant Number mean: 0.324038643258 max: 0.339029450312
Diffusion Courant Number mean: 0.000407945934273 max: 0.163178373709
deltaT = 0.00333333333333
Time = 0.04

Outer corrector 1
Phase-1 C[0] = 393.534344551
Min(C1i) = 0  Max(C1i) = 785.709999376
Min(Y1i) = 0  Max(Y1i) = 1
Phase-0 C[0] = 0.297337124182
Min(C0i) = 0  Max(C0i) = 3.13424620136
Min(Y0i) = 0  Max(Y0i) = 0.0185086444106
Phase-1 C[1] = 2.14199583301
Min(C1i) = 0  Max(C1i) = 12.6377725425
Min(Y1i) = 4.98827369411e-08  Max(Y1i) = 1
Phase-0 C[1] = 87.4557107387
Min(C0i) = 0  Max(C0i) = 177.096113359
Min(Y0i) = 0.981491355589  Max(Y0i) = 1
Done Interfacial Species Transfer Source Terms Calculation
ExecutionTime = 0.92 s

Done interface reconstruction
ExecutionTime = 0.93 s

Min(rho) = 177.096113359  Max(rho) = 900
Min(mu) = 3.5e-05  Max(mu) = 0.0007
Min(muf) = 3.5e-05  Max(muf) = 0.0007

Pressure corrector 1
DICPCG:  Solving for p_rgh, Initial residual = 0.0135252627127, Final residual = 9.64914008442e-16, No Iterations 46
time step continuity errors : sum local = 5.79576248886e-08, global = 1.03127738648e-09, cumulative = -2.55543789414e-09
Min(U) = (0.00853543142552 -0.00033140990461 0)  Max(U) = (0.0100444684476 5.65296300162e-05 0)
Min(p_rgh) = 30000000  Max(p_rgh) = 30000000.0099
ExecutionTime = 0.93 s
Calculating two-phase advective fluxes
ExecutionTime = 0.98 s
alpha1:  avg = 0.503729073848  min = 0  undershoot = 0  max = 1.00000003315  overshoot = 3.31540011e-08
alpha1 after clipping:  avg = 0.503729073336
ExecutionTime = 0.98 s

C1[0]:  avg = 393.661944454
C1[0] after clipping:  avg = 393.661944454
C0[0]:  avg = 0.29475609581
C0[0] after clipping:  avg = 0.29475609581
Done YAdvEqns
ExecutionTime = 0.98 s

Done interface reconstruction
ExecutionTime = 0.99 s

Done correcting thermo and transport props
ExecutionTime = 0.99 s

Done gradients and face interpolations for diffusion
ExecutionTime = 1 s

Phase-1 Ci = 393.661944454
Min(C1i) = 0  Max(C1i) = 785.709999376
Min(Y1i) = 0  Max(Y1i) = 1
C1i undershoot = 0  C1i overshoot = 0
Y1i undershoot = 0  Y1i overshoot = 0
Phase-1 Ci after clipping = 393.661944454
Min(C1i) = 0  Max(C1i) = 785.709999376
Min(Y1i) = 0  Max(Y1i) = 1
Phase-0 Ci = 0.29475609581
Min(C0i) = 0  Max(C0i) = 3.09234735601
Min(Y0i) = 0  Max(Y0i) = 0.0182715449446
C0i undershoot = 0  C0i overshoot = 0
Y0i undershoot = 0  Y0i overshoot = 0
Phase-0 Ci after clipping = 0.29475609581
Min(C0i) = 0  Max(C0i) = 3.09234735601
Min(Y0i) = 0  Max(Y0i) = 0.0182715449446
Done YDiffEqns
ExecutionTime = 1 s



Courant Number mean: 0.324867240566 max: 0.338687276058
Diffusion Courant Number mean: 0.000407945918817 max: 0.163178367527
deltaT = 0.00333333333333
Time = 0.0433333

Outer corrector 1
Phase-1 C[0] = 393.625889087
Min(C1i) = 0  Max(C1i) = 785.709999376
Min(Y1i) = 0  Max(Y1i) = 1
Phase-0 C[0] = 0.330811462728
Min(C0i) = 0  Max(C0i) = 3.48295680389
Min(Y0i) = 0  Max(Y0i) = 0.0206685676517
Phase-1 C[1] = 2.35941405591
Min(C1i) = 0  Max(C1i) = 14.627857474
Min(Y1i) = 5.08085513662e-08  Max(Y1i) = 1
Phase-0 C[1] = 87.3565075755
Min(C0i) = 0  Max(C0i) = 177.096113359
Min(Y0i) = 0.979331432348  Max(Y0i) = 1
Done Interfacial Species Transfer Source Terms Calculation
ExecutionTime = 1.02 s

Done interface reconstruction
ExecutionTime = 1.02 s

Min(rho) = 177.096113359  Max(rho) = 900
Min(mu) = 3.5e-05  Max(mu) = 0.0007
Min(muf) = 3.5e-05  Max(muf) = 0.0007

Pressure corrector 1
DICPCG:  Solving for p_rgh, Initial residual = 0.0129814988841, Final residual = 9.35352005085e-16, No Iterations 46
time step continuity errors : sum local = 5.41177063543e-08, global = -2.7765192527e-10, cumulative = -2.83308981941e-09
Min(U) = (0.00862271824969 -0.000325466733923 0)  Max(U) = (0.0100397728694 5.71598982767e-05 0)
Min(p_rgh) = 30000000  Max(p_rgh) = 30000000.0093
ExecutionTime = 1.02 s
Calculating two-phase advective fluxes
ExecutionTime = 1.07 s
alpha1:  avg = 0.504119457818  min = 0  undershoot = 0  max = 1.00000005352  overshoot = 5.35151054581e-08
alpha1 after clipping:  avg = 0.504119457044
ExecutionTime = 1.07 s

C1[0]:  avg = 393.753261247
C1[0] after clipping:  avg = 393.753261247
C0[0]:  avg = 0.327915824978
C0[0] after clipping:  avg = 0.327915824978
Done YAdvEqns
ExecutionTime = 1.07 s

Done interface reconstruction
ExecutionTime = 1.08 s

Done correcting thermo and transport props
ExecutionTime = 1.09 s

Done gradients and face interpolations for diffusion
ExecutionTime = 1.09 s

Phase-1 Ci = 393.753261247
Min(C1i) = 0  Max(C1i) = 785.709999376
Min(Y1i) = 0  Max(Y1i) = 1
C1i undershoot = 0  C1i overshoot = 0
Y1i undershoot = 0  Y1i overshoot = 0
Phase-1 Ci after clipping = 393.753261247
Min(C1i) = 0  Max(C1i) = 785.709999376
Min(Y1i) = 0  Max(Y1i) = 1
Phase-0 Ci = 0.327915824978
Min(C0i) = 0  Max(C0i) = 3.43836625933
Min(Y0i) = 0  Max(Y0i) = 0.0203933512092
C0i undershoot = 0  C0i overshoot = 0
Y0i undershoot = 0  Y0i overshoot = 0
Phase-0 Ci after clipping = 0.327915824978
Min(C0i) = 0  Max(C0i) = 3.43836625933
Min(Y0i) = 0  Max(Y0i) = 0.0203933512092
Done YDiffEqns
ExecutionTime = 1.09 s



Courant Number mean: 0.3256292957 max: 0.338269040775
Diffusion Courant Number mean: 0.000407945906745 max: 0.163178362698
deltaT = 0.00333333333333
Time = 0.0466667

Outer corrector 1
Phase-1 C[0] = 393.71749028
Min(C1i) = 0  Max(C1i) = 785.709999376
Min(Y1i) = 0  Max(Y1i) = 1
Phase-0 C[0] = 0.363686791567
Min(C0i) = 0  Max(C0i) = 3.82652570983
Min(Y0i) = 0  Max(Y0i) = 0.0228344869265
Phase-1 C[1] = 2.56973896838
Min(C1i) = 0  Max(C1i) = 16.6178138842
Min(Y1i) = 5.1240220067e-08  Max(Y1i) = 1
Phase-0 C[1] = 87.2592990867
Min(C0i) = 0  Max(C0i) = 177.096113359
Min(Y0i) = 0.977165513074  Max(Y0i) = 1
Done Interfacial Species Transfer Source Terms Calculation
ExecutionTime = 1.09 s

Done interface reconstruction
ExecutionTime = 1.1 s

Min(rho) = 177.096113359  Max(rho) = 900
Min(mu) = 3.5e-05  Max(mu) = 0.0007
Min(muf) = 3.5e-05  Max(muf) = 0.0007

Pressure corrector 1
DICPCG:  Solving for p_rgh, Initial residual = 0.010289132496, Final residual = 7.88886958961e-16, No Iterations 46
time step continuity errors : sum local = 4.87710879813e-08, global = 1.23627490874e-09, cumulative = -1.59681491067e-09
Min(U) = (0.00870501954665 -0.000320321602178 0)  Max(U) = (0.0100442323847 5.74822546111e-05 0)
Min(p_rgh) = 30000000  Max(p_rgh) = 30000000.0084
ExecutionTime = 1.1 s
Calculating two-phase advective fluxes
ExecutionTime = 1.15 s
alpha1:  avg = 0.50450099004  min = 0  undershoot = 0  max = 1.00000002368  overshoot = 2.36773387563e-08
alpha1 after clipping:  avg = 0.504500989284
ExecutionTime = 1.15 s

C1[0]:  avg = 393.844666685
C1[0] after clipping:  avg = 393.844666685
C0[0]:  avg = 0.360477656319
C0[0] after clipping:  avg = 0.360477656319
Done YAdvEqns
ExecutionTime = 1.15 s

Done interface reconstruction
ExecutionTime = 1.16 s

Done correcting thermo and transport props
ExecutionTime = 1.16 s

Done gradients and face interpolations for diffusion
ExecutionTime = 1.16 s

Phase-1 Ci = 393.844666685
Min(C1i) = 0  Max(C1i) = 785.709999376
Min(Y1i) = 0  Max(Y1i) = 1
C1i undershoot = 0  C1i overshoot = 0
Y1i undershoot = 0  Y1i overshoot = 0
Phase-1 Ci after clipping = 393.844666685
Min(C1i) = 0  Max(C1i) = 785.709999376
Min(Y1i) = 0  Max(Y1i) = 1
Phase-0 Ci = 0.360477656319
Min(C0i) = 0  Max(C0i) = 3.77895026442
Min(Y0i) = 0  Max(Y0i) = 0.0224946053347
C0i undershoot = 0  C0i overshoot = 0
Y0i undershoot = 0  Y0i overshoot = 0
Phase-0 Ci after clipping = 0.360477656319
Min(C0i) = 0  Max(C0i) = 3.77895026442
Min(Y0i) = 0  Max(Y0i) = 0.0224946053347
Done YDiffEqns
ExecutionTime = 1.16 s



Courant Number mean: 0.326310760801 max: 0.338034426725
Diffusion Courant Number mean: 0.000407946005417 max: 0.163178402167
deltaT = 0.00333333333333
Time = 0.05

Outer corrector 1
Phase-1 C[0] = 393.809157666
Min(C1i) = 0  Max(C1i) = 785.709999376
Min(Y1i) = 0  Max(Y1i) = 1
Phase-0 C[0] = 0.395986675196
Min(C0i) = 0  Max(C0i) = 4.16364634265
Min(Y0i) = 0  Max(Y0i) = 0.0249692318245
Phase-1 C[1] = 2.77330757846
Min(C1i) = 0  Max(C1i) = 18.5669877975
Min(Y1i) = 4.62290566938e-08  Max(Y1i) = 1
Phase-0 C[1] = 87.1639690265
Min(C0i) = 0  Max(C0i) = 177.096113359
Min(Y0i) = 0.975030768176  Max(Y0i) = 1
Done Interfacial Species Transfer Source Terms Calculation
ExecutionTime = 1.17 s

Done interface reconstruction
ExecutionTime = 1.17 s

Min(rho) = 177.096113359  Max(rho) = 900
Min(mu) = 3.5e-05  Max(mu) = 0.0007
Min(muf) = 3.5e-05  Max(muf) = 0.0007

Pressure corrector 1
DICPCG:  Solving for p_rgh, Initial residual = 0.00795592438797, Final residual = 5.02122054514e-16, No Iterations 46
time step continuity errors : sum local = 5.30571507011e-08, global = -1.36910121237e-09, cumulative = -2.96591612304e-09
Min(U) = (0.00878298785479 -0.000314124813623 0)  Max(U) = (0.0100481973596 5.7800048893e-05 0)
Min(p_rgh) = 30000000  Max(p_rgh) = 30000000.0078
ExecutionTime = 1.17 s
Calculating two-phase advective fluxes
ExecutionTime = 1.22 s
alpha1:  avg = 0.504874119458  min = 0  undershoot = 0  max = 1.00000002471  overshoot = 2.47059905867e-08
alpha1 after clipping:  avg = 0.504874118933
ExecutionTime = 1.22 s

C1[0]:  avg = 393.936188021
C1[0] after clipping:  avg = 393.936188021
C0[0]:  avg = 0.392465815625
C0[0] after clipping:  avg = 0.392465815625
Done YAdvEqns
ExecutionTime = 1.22 s

Done interface reconstruction
ExecutionTime = 1.23 s

Done correcting thermo and transport props
ExecutionTime = 1.24 s

Done gradients and face interpolations for diffusion
ExecutionTime = 1.24 s

Phase-1 Ci = 393.936188021
Min(C1i) = 0  Max(C1i) = 785.709999376
Min(Y1i) = 0  Max(Y1i) = 1
C1i undershoot = 0  C1i overshoot = 0
Y1i undershoot = 0  Y1i overshoot = 0
Phase-1 Ci after clipping = 393.936188021
Min(C1i) = 0  Max(C1i) = 785.709999376
Min(Y1i) = 0  Max(Y1i) = 1
Phase-0 Ci = 0.392465815625
Min(C0i) = 0  Max(C0i) = 4.11382633759
Min(Y0i) = 0  Max(Y0i) = 0.0245732845048
C0i undershoot = 0  C0i overshoot = 0
Y0i undershoot = 0  Y0i overshoot = 0
Phase-0 Ci after clipping = 0.392465815625
Min(C0i) = 0  Max(C0i) = 4.11382633759
Min(Y0i) = 0  Max(Y0i) = 0.0245732845048
Done YDiffEqns
ExecutionTime = 1.24 s



Courant Number mean: 0.326932523928 max: 0.337938338031
Diffusion Courant Number mean: 0.000407945903396 max: 0.163178361358
deltaT = 0.00333333333333
Time = 0.0533333

Outer corrector 1
Phase-1 C[0] = 393.900890173
Min(C1i) = 0  Max(C1i) = 785.709999376
Min(Y1i) = 0  Max(Y1i) = 1
Phase-0 C[0] = 0.427763663545
Min(C0i) = 0  Max(C0i) = 4.49504196354
Min(Y0i) = 0  Max(Y0i) = 0.0270779510871
Phase-1 C[1] = 2.97068077727
Min(C1i) = 0  Max(C1i) = 20.4888663807
Min(Y1i) = 5.00801639047e-08  Max(Y1i) = 1
Phase-0 C[1] = 87.0701782183
Min(C0i) = 0  Max(C0i) = 177.096113359
Min(Y0i) = 0.972922048913  Max(Y0i) = 1
Done Interfacial Species Transfer Source Terms Calculation
ExecutionTime = 1.25 s

Done interface reconstruction
ExecutionTime = 1.26 s

Min(rho) = 177.096113359  Max(rho) = 900
Min(mu) = 3.5e-05  Max(mu) = 0.0007
Min(muf) = 3.5e-05  Max(muf) = 0.0007

Pressure corrector 1
DICPCG:  Solving for p_rgh, Initial residual = 0.00664914478479, Final residual = 4.17842087244e-16, No Iterations 46
time step continuity errors : sum local = 4.74478328945e-08, global = -2.97785378798e-10, cumulative = -3.26370150184e-09
Min(U) = (0.0088545317579 -0.000307089790014 0)  Max(U) = (0.0100498201764 5.82810417215e-05 0)
Min(p_rgh) = 30000000  Max(p_rgh) = 30000000.0067
ExecutionTime = 1.26 s
Calculating two-phase advective fluxes
ExecutionTime = 1.31 s
alpha1:  avg = 0.505239690828  min = 0  undershoot = 0  max = 1.0000000318  overshoot = 3.17977748576e-08
alpha1 after clipping:  avg = 0.505239690204
ExecutionTime = 1.31 s

C1[0]:  avg = 394.027916665
C1[0] after clipping:  avg = 394.027916665
C0[0]:  avg = 0.423932728912
C0[0] after clipping:  avg = 0.423932728912
Done YAdvEqns
ExecutionTime = 1.31 s

Done interface reconstruction
ExecutionTime = 1.32 s

Done correcting thermo and transport props
ExecutionTime = 1.32 s

Done gradients and face interpolations for diffusion
ExecutionTime = 1.33 s

Phase-1 Ci = 394.027916665
Min(C1i) = 0  Max(C1i) = 785.709999376
Min(Y1i) = 0  Max(Y1i) = 1
C1i undershoot = 0  C1i overshoot = 0
Y1i undershoot = 0  Y1i overshoot = 0
Phase-1 Ci after clipping = 394.027916665
Min(C1i) = 0  Max(C1i) = 785.709999376
Min(Y1i) = 0  Max(Y1i) = 1
Phase-0 Ci = 0.423932728912
Min(C0i) = 0  Max(C0i) = 4.44353187105
Min(Y0i) = 0  Max(Y0i) = 0.0266328659559
C0i undershoot = 0  C0i overshoot = 0
Y0i undershoot = 0  Y0i overshoot = 0
Phase-0 Ci after clipping = 0.423932728912
Min(C0i) = 0  Max(C0i) = 4.44353187105
Min(Y0i) = 0  Max(Y0i) = 0.0266328659559
Done YDiffEqns
ExecutionTime = 1.33 s



Courant Number mean: 0.327469209757 max: 0.337734526017
Diffusion Courant Number mean: 0.000407945791286 max: 0.163178316514
deltaT = 0.00333333333333
Time = 0.0566667

Outer corrector 1
Phase-1 C[0] = 393.992827033
Min(C1i) = 0  Max(C1i) = 785.709999376
Min(Y1i) = 0  Max(Y1i) = 1
Phase-0 C[0] = 0.459022361216
Min(C0i) = 0  Max(C0i) = 4.82120007207
Min(Y0i) = 0  Max(Y0i) = 0.0291855605683
Phase-1 C[1] = 3.16202912242
Min(C1i) = 0  Max(C1i) = 22.3956472019
Min(Y1i) = 5.3497686503e-08  Max(Y1i) = 1
Phase-0 C[1] = 86.9781260669
Min(C0i) = 0  Max(C0i) = 177.096113359
Min(Y0i) = 0.970814439432  Max(Y0i) = 1
Done Interfacial Species Transfer Source Terms Calculation
ExecutionTime = 1.33 s

Done interface reconstruction
ExecutionTime = 1.33 s

Min(rho) = 177.096113359  Max(rho) = 900
Min(mu) = 3.5e-05  Max(mu) = 0.0007
Min(muf) = 3.5e-05  Max(muf) = 0.0007

Pressure corrector 1
DICPCG:  Solving for p_rgh, Initial residual = 0.00591211397011, Final residual = 9.60305290586e-16, No Iterations 45
time step continuity errors : sum local = 4.78361621962e-08, global = -6.18020272426e-11, cumulative = -3.32550352908e-09
Min(U) = (0.00892336581129 -0.000299572170499 0)  Max(U) = (0.0100531869179 5.85811648197e-05 0)
Min(p_rgh) = 30000000  Max(p_rgh) = 30000000.0065
ExecutionTime = 1.34 s
Calculating two-phase advective fluxes
ExecutionTime = 1.39 s
alpha1:  avg = 0.505597867408  min = 0  undershoot = 0  max = 1.00000002402  overshoot = 2.40170636712e-08
alpha1 after clipping:  avg = 0.505597866684
ExecutionTime = 1.39 s

C1[0]:  avg = 394.119823584
C1[0] after clipping:  avg = 394.119823584
C0[0]:  avg = 0.454881589949
C0[0] after clipping:  avg = 0.454881589949
Done YAdvEqns
ExecutionTime = 1.39 s

Done interface reconstruction
ExecutionTime = 1.39 s

Done correcting thermo and transport props
ExecutionTime = 1.4 s

Done gradients and face interpolations for diffusion
ExecutionTime = 1.4 s

Phase-1 Ci = 394.119823584
Min(C1i) = 0  Max(C1i) = 785.709999376
Min(Y1i) = 0  Max(Y1i) = 1
C1i undershoot = 0  C1i overshoot = 0
Y1i undershoot = 0  Y1i overshoot = 0
Phase-1 Ci after clipping = 394.119823584
Min(C1i) = 0  Max(C1i) = 785.709999376
Min(Y1i) = 0  Max(Y1i) = 1
Phase-0 Ci = 0.454881589949
Min(C0i) = 0  Max(C0i) = 4.76848365114
Min(Y0i) = 0  Max(Y0i) = 0.0286766743104
C0i undershoot = 0  C0i overshoot = 0
Y0i undershoot = 0  Y0i overshoot = 0
Phase-0 Ci after clipping = 0.454881589949
Min(C0i) = 0  Max(C0i) = 4.76848365114
Min(Y0i) = 0  Max(Y0i) = 0.0286766743104
Done YDiffEqns
ExecutionTime = 1.4 s



Courant Number mean: 0.327982031546 max: 0.337543763121
Diffusion Courant Number mean: 0.000407945716657 max: 0.163178286663
deltaT = 0.00333333333333
Time = 0.06

Outer corrector 1
Phase-1 C[0] = 394.084930343
Min(C1i) = 0  Max(C1i) = 785.709999376
Min(Y1i) = 0  Max(Y1i) = 1
Phase-0 C[0] = 0.489774830453
Min(C0i) = 0  Max(C0i) = 5.14217878136
Min(Y0i) = 0  Max(Y0i) = 0.0312725525085
Phase-1 C[1] = 3.34760407302
Min(C1i) = 0  Max(C1i) = 24.2305615103
Min(Y1i) = 5.4467346744e-08  Max(Y1i) = 1
Phase-0 C[1] = 86.8876865168
Min(C0i) = 0  Max(C0i) = 177.096113359
Min(Y0i) = 0.968727447492  Max(Y0i) = 1
Done Interfacial Species Transfer Source Terms Calculation
ExecutionTime = 1.4 s

Done interface reconstruction
ExecutionTime = 1.41 s

Min(rho) = 177.096113359  Max(rho) = 900
Min(mu) = 3.5e-05  Max(mu) = 0.0007
Min(muf) = 3.5e-05  Max(muf) = 0.0007

Pressure corrector 1
DICPCG:  Solving for p_rgh, Initial residual = 0.00745959543046, Final residual = 4.89985832466e-16, No Iterations 46
time step continuity errors : sum local = 5.17421119256e-08, global = -8.95641242671e-10, cumulative = -4.22114477175e-09
Min(U) = (0.00898822130077 -0.000296806816346 0)  Max(U) = (0.0100555370087 5.87347286687e-05 0)
Min(p_rgh) = 30000000  Max(p_rgh) = 30000000.0061
ExecutionTime = 1.41 s
Calculating two-phase advective fluxes
ExecutionTime = 1.46 s
alpha1:  avg = 0.505948948092  min = 0  undershoot = 0  max = 1.00000003312  overshoot = 3.31191365444e-08
alpha1 after clipping:  avg = 0.505948947672
ExecutionTime = 1.46 s

C1[0]:  avg = 394.211901448
C1[0] after clipping:  avg = 394.211901448
C0[0]:  avg = 0.485324751493
C0[0] after clipping:  avg = 0.485324751493
Done YAdvEqns
ExecutionTime = 1.46 s

Done interface reconstruction
ExecutionTime = 1.47 s

Done correcting thermo and transport props
ExecutionTime = 1.48 s

Done gradients and face interpolations for diffusion
ExecutionTime = 1.48 s

Phase-1 Ci = 394.211901448
Min(C1i) = 0  Max(C1i) = 785.709999376
Min(Y1i) = 0  Max(Y1i) = 1
C1i undershoot = 0  C1i overshoot = 0
Y1i undershoot = 0  Y1i overshoot = 0
Phase-1 Ci after clipping = 394.211901448
Min(C1i) = 0  Max(C1i) = 785.709999376
Min(Y1i) = 0  Max(Y1i) = 1
Phase-0 Ci = 0.485324751493
Min(C0i) = 0  Max(C0i) = 5.0886413263
Min(Y0i) = 0  Max(Y0i) = 0.030705776193
C0i undershoot = 0  C0i overshoot = 0
Y0i undershoot = 0  Y0i overshoot = 0
Phase-0 Ci after clipping = 0.485324751493
Min(C0i) = 0  Max(C0i) = 5.0886413263
Min(Y0i) = 0  Max(Y0i) = 0.030705776193
Done YDiffEqns
ExecutionTime = 1.48 s



Courant Number mean: 0.328454580889 max: 0.337519146151
Diffusion Courant Number mean: 0.000407945597292 max: 0.163178238917
deltaT = 0.00333333333333
Time = 0.0633333

Outer corrector 1
Phase-1 C[0] = 394.177187922
Min(C1i) = 0  Max(C1i) = 785.709999376
Min(Y1i) = 0  Max(Y1i) = 1
Phase-0 C[0] = 0.520038277582
Min(C0i) = 0  Max(C0i) = 5.45905684906
Min(Y0i) = 0  Max(Y0i) = 0.0333355641565
Phase-1 C[1] = 3.52768018339
Min(C1i) = 0  Max(C1i) = 25.994033725
Min(Y1i) = 5.86653744472e-08  Max(Y1i) = 1
Phase-0 C[1] = 86.7987621445
Min(C0i) = 0  Max(C0i) = 177.096113359
Min(Y0i) = 0.966664435843  Max(Y0i) = 1
Done Interfacial Species Transfer Source Terms Calculation
ExecutionTime = 1.49 s

Done interface reconstruction
ExecutionTime = 1.49 s

Min(rho) = 177.096113359  Max(rho) = 900
Min(mu) = 3.5e-05  Max(mu) = 0.0007
Min(muf) = 3.5e-05  Max(muf) = 0.0007

Pressure corrector 1
DICPCG:  Solving for p_rgh, Initial residual = 0.00714115069293, Final residual = 3.98620113067e-16, No Iterations 46
time step continuity errors : sum local = 5.26523668889e-08, global = -1.557957722e-09, cumulative = -5.77910249375e-09
Min(U) = (0.00904875277302 -0.0002944815236 0)  Max(U) = (0.0100573590626 5.87578570889e-05 0)
Min(p_rgh) = 30000000  Max(p_rgh) = 30000000.0056
ExecutionTime = 1.49 s
Calculating two-phase advective fluxes
ExecutionTime = 1.54 s
alpha1:  avg = 0.506293256631  min = 0  undershoot = 0  max = 1.0000000312  overshoot = 3.1197715078e-08
alpha1 after clipping:  avg = 0.50629325619
ExecutionTime = 1.54 s

C1[0]:  avg = 394.304134926
C1[0] after clipping:  avg = 394.304134926
C0[0]:  avg = 0.515278604299
C0[0] after clipping:  avg = 0.5152786043
Done YAdvEqns
ExecutionTime = 1.54 s

Done interface reconstruction
ExecutionTime = 1.54 s

Done correcting thermo and transport props
ExecutionTime = 1.56 s

Done gradients and face interpolations for diffusion
ExecutionTime = 1.56 s

Phase-1 Ci = 394.304134926
Min(C1i) = 0  Max(C1i) = 785.709999376
Min(Y1i) = 0  Max(Y1i) = 1
C1i undershoot = 0  C1i overshoot = 0
Y1i undershoot = 0  Y1i overshoot = 0
Phase-1 Ci after clipping = 394.304134926
Min(C1i) = 0  Max(C1i) = 785.709999376
Min(Y1i) = 0  Max(Y1i) = 1
Phase-0 Ci = 0.5152786043
Min(C0i) = 0  Max(C0i) = 5.40482487197
Min(Y0i) = 0  Max(Y0i) = 0.0327292457412
C0i undershoot = 0  C0i overshoot = 0
Y0i undershoot = 0  Y0i overshoot = 0
Phase-0 Ci after clipping = 0.5152786043
Min(C0i) = 0  Max(C0i) = 5.40482487197
Min(Y0i) = 0  Max(Y0i) = 0.0327292457412
Done YDiffEqns
ExecutionTime = 1.56 s



Courant Number mean: 0.328882816899 max: 0.337662737163
Diffusion Courant Number mean: 0.000407945644451 max: 0.16317825778
deltaT = 0.00333333333333
Time = 0.0666667

Outer corrector 1
Phase-1 C[0] = 394.269586619
Min(C1i) = 0  Max(C1i) = 785.709999376
Min(Y1i) = 0  Max(Y1i) = 1
Phase-0 C[0] = 0.54982691148
Min(C0i) = 0  Max(C0i) = 5.77200505094
Min(Y0i) = 0  Max(Y0i) = 0.0353835005141
Phase-1 C[1] = 3.70250027924
Min(C1i) = 0  Max(C1i) = 27.7477263072
Min(Y1i) = 5.61077291295e-08  Max(Y1i) = 1
Phase-0 C[1] = 86.711305663
Min(C0i) = 0  Max(C0i) = 177.096113359
Min(Y0i) = 0.964616499486  Max(Y0i) = 1
Done Interfacial Species Transfer Source Terms Calculation
ExecutionTime = 1.56 s

Done interface reconstruction
ExecutionTime = 1.56 s

Min(rho) = 177.096113359  Max(rho) = 900
Min(mu) = 3.5e-05  Max(mu) = 0.0007
Min(muf) = 3.5e-05  Max(muf) = 0.0007

Pressure corrector 1
DICPCG:  Solving for p_rgh, Initial residual = 0.00580146154724, Final residual = 2.96866534919e-16, No Iterations 46
time step continuity errors : sum local = 4.68129522281e-08, global = -6.95538474172e-10, cumulative = -6.47464096793e-09
Min(U) = (0.00910562050262 -0.000290851791037 0)  Max(U) = (0.0100587093707 5.99747414998e-05 0)
Min(p_rgh) = 30000000  Max(p_rgh) = 30000000.0052
ExecutionTime = 1.56 s
Calculating two-phase advective fluxes
ExecutionTime = 1.62 s
alpha1:  avg = 0.506631032325  min = 0  undershoot = 0  max = 1.00000002347  overshoot = 2.34717512093e-08
alpha1 after clipping:  avg = 0.506631031945
ExecutionTime = 1.62 s

C1[0]:  avg = 394.396475202
C1[0] after clipping:  avg = 394.396475202
C0[0]:  avg = 0.544757163443
C0[0] after clipping:  avg = 0.544757163444
Done YAdvEqns
ExecutionTime = 1.62 s

Done interface reconstruction
ExecutionTime = 1.62 s

Done correcting thermo and transport props
ExecutionTime = 1.63 s

Done gradients and face interpolations for diffusion
ExecutionTime = 1.63 s

Phase-1 Ci = 394.396475202
Min(C1i) = 0  Max(C1i) = 785.709999376
Min(Y1i) = 0  Max(Y1i) = 1
C1i undershoot = 0  C1i overshoot = 0
Y1i undershoot = 0  Y1i overshoot = 0
Phase-1 Ci after clipping = 394.396475202
Min(C1i) = 0  Max(C1i) = 785.709999376
Min(Y1i) = 0  Max(Y1i) = 1
Phase-0 Ci = 0.544757163444
Min(C0i) = 0  Max(C0i) = 5.71708886847
Min(Y0i) = 0  Max(Y0i) = 0.0347556647473
C0i undershoot = 0  C0i overshoot = 0
Y0i undershoot = 0  Y0i overshoot = 0
Phase-0 Ci after clipping = 0.544757163444
Min(C0i) = 0  Max(C0i) = 5.71708886847
Min(Y0i) = 0  Max(Y0i) = 0.0347556647473
Done YDiffEqns
ExecutionTime = 1.63 s



Courant Number mean: 0.329275955559 max: 0.337795077781
Diffusion Courant Number mean: 0.000407945983873 max: 0.163178393549
deltaT = 0.00333333333333
Time = 0.07

Outer corrector 1
Phase-1 C[0] = 394.362076412
Min(C1i) = 0  Max(C1i) = 785.709999376
Min(Y1i) = 0  Max(Y1i) = 1
Phase-0 C[0] = 0.579155953464
Min(C0i) = 0  Max(C0i) = 6.08107858269
Min(Y0i) = 0  Max(Y0i) = 0.037427392087
Phase-1 C[1] = 3.87232424754
Min(C1i) = 0  Max(C1i) = 29.3823469135
Min(Y1i) = 4.00781663412e-08  Max(Y1i) = 1
Phase-0 C[1] = 86.6252378743
Min(C0i) = 0  Max(C0i) = 177.096113359
Min(Y0i) = 0.962572607913  Max(Y0i) = 1
Done Interfacial Species Transfer Source Terms Calculation
ExecutionTime = 1.63 s

Done interface reconstruction
ExecutionTime = 1.64 s

Min(rho) = 177.096113359  Max(rho) = 900
Min(mu) = 3.5e-05  Max(mu) = 0.0007
Min(muf) = 3.5e-05  Max(muf) = 0.0007

Pressure corrector 1
DICPCG:  Solving for p_rgh, Initial residual = 0.0074246209062, Final residual = 8.08805466517e-16, No Iterations 46
time step continuity errors : sum local = 4.76683064403e-08, global = -2.46719574167e-09, cumulative = -8.9418367096e-09
Min(U) = (0.00915812633502 -0.000287304543426 0)  Max(U) = (0.0100601325301 6.150131981e-05 0)
Min(p_rgh) = 29999999.9999  Max(p_rgh) = 30000000.0047
ExecutionTime = 1.64 s
Calculating two-phase advective fluxes
ExecutionTime = 1.69 s
alpha1:  avg = 0.506962557724  min = 0  undershoot = 0  max = 1.00000002845  overshoot = 2.84475956125e-08
alpha1 after clipping:  avg = 0.506962557227
ExecutionTime = 1.69 s

C1[0]:  avg = 394.488887879
C1[0] after clipping:  avg = 394.488887879
C0[0]:  avg = 0.573775727622
C0[0] after clipping:  avg = 0.573775727622
Done YAdvEqns
ExecutionTime = 1.69 s

Done interface reconstruction
ExecutionTime = 1.7 s

Done correcting thermo and transport props
ExecutionTime = 1.7 s

Done gradients and face interpolations for diffusion
ExecutionTime = 1.71 s

Phase-1 Ci = 394.488887879
Min(C1i) = 0  Max(C1i) = 785.709999376
Min(Y1i) = 0  Max(Y1i) = 1
C1i undershoot = 0  C1i overshoot = 0
Y1i undershoot = 0  Y1i overshoot = 0
Phase-1 Ci after clipping = 394.488887879
Min(C1i) = 0  Max(C1i) = 785.709999376
Min(Y1i) = 0  Max(Y1i) = 1
Phase-0 Ci = 0.573775727622
Min(C0i) = 0  Max(C0i) = 6.02534787015
Min(Y0i) = 0  Max(Y0i) = 0.0367568984443
C0i undershoot = 0  C0i overshoot = 0
Y0i undershoot = 0  Y0i overshoot = 0
Phase-0 Ci after clipping = 0.573775727622
Min(C0i) = 0  Max(C0i) = 6.02534787015
Min(Y0i) = 0  Max(Y0i) = 0.0367568984443
Done YDiffEqns
ExecutionTime = 1.71 s



Courant Number mean: 0.329632093087 max: 0.337914885476
Diffusion Courant Number mean: 0.000407946004628 max: 0.163178401851
deltaT = 0.00333333333333
Time = 0.0733333

Outer corrector 1
Phase-1 C[0] = 394.454660663
Min(C1i) = 0  Max(C1i) = 785.709999376
Min(Y1i) = 0  Max(Y1i) = 1
Phase-0 C[0] = 0.608002943521
Min(C0i) = 0  Max(C0i) = 6.3861918205
Min(Y0i) = 0  Max(Y0i) = 0.0394447468761
Phase-1 C[1] = 4.03726137583
Min(C1i) = 0  Max(C1i) = 30.8511526378
Min(Y1i) = 3.82437238544e-08  Max(Y1i) = 1
Phase-0 C[1] = 86.5406403949
Min(C0i) = 0  Max(C0i) = 177.096113359
Min(Y0i) = 0.960555253124  Max(Y0i) = 1
Done Interfacial Species Transfer Source Terms Calculation
ExecutionTime = 1.72 s

Done interface reconstruction
ExecutionTime = 1.72 s

Min(rho) = 177.096113359  Max(rho) = 900
Min(mu) = 3.5e-05  Max(mu) = 0.0007
Min(muf) = 3.5e-05  Max(muf) = 0.0007

Pressure corrector 1
DICPCG:  Solving for p_rgh, Initial residual = 0.00721868860704, Final residual = 5.39666654141e-16, No Iterations 46
time step continuity errors : sum local = 5.01243612993e-08, global = 9.19684391181e-10, cumulative = -8.02215231842e-09
Min(U) = (0.00920840395378 -0.000283088979217 0)  Max(U) = (0.0100595923126 6.28685523595e-05 0)
Min(p_rgh) = 29999999.9999  Max(p_rgh) = 30000000.0047
ExecutionTime = 1.73 s
Calculating two-phase advective fluxes
ExecutionTime = 1.78 s
alpha1:  avg = 0.507287870556  min = 0  undershoot = 0  max = 1.00000002488  overshoot = 2.48756986121e-08
alpha1 after clipping:  avg = 0.507287870176
ExecutionTime = 1.78 s

C1[0]:  avg = 394.581296443
C1[0] after clipping:  avg = 394.581296443
C0[0]:  avg = 0.602311490041
C0[0] after clipping:  avg = 0.602311490042
Done YAdvEqns
ExecutionTime = 1.78 s

Done interface reconstruction
ExecutionTime = 1.78 s

Done correcting thermo and transport props
ExecutionTime = 1.79 s

Done gradients and face interpolations for diffusion
ExecutionTime = 1.8 s

Phase-1 Ci = 394.581296443
Min(C1i) = 0  Max(C1i) = 785.709999376
Min(Y1i) = 0  Max(Y1i) = 1
C1i undershoot = 0  C1i overshoot = 0
Y1i undershoot = 0  Y1i overshoot = 0
Phase-1 Ci after clipping = 394.581296443
Min(C1i) = 0  Max(C1i) = 785.709999376
Min(Y1i) = 0  Max(Y1i) = 1
Phase-0 Ci = 0.602311490042
Min(C0i) = 0  Max(C0i) = 6.32952469901
Min(Y0i) = 0  Max(Y0i) = 0.0387583583405
C0i undershoot = 0  C0i overshoot = 0
Y0i undershoot = 0  Y0i overshoot = 0
Phase-0 Ci after clipping = 0.602311490042
Min(C0i) = 0  Max(C0i) = 6.32952469901
Min(Y0i) = 0  Max(Y0i) = 0.0387583583405
Done YDiffEqns
ExecutionTime = 1.8 s



Courant Number mean: 0.329983107875 max: 0.337969286934
Diffusion Courant Number mean: 0.000407946013051 max: 0.16317840522
deltaT = 0.00333333333333
Time = 0.0766667

Outer corrector 1
Phase-1 C[0] = 394.547257363
Min(C1i) = 0  Max(C1i) = 785.709999376
Min(Y1i) = 0  Max(Y1i) = 1
Phase-0 C[0] = 0.636350569623
Min(C0i) = 0  Max(C0i) = 6.68727479102
Min(Y0i) = 0  Max(Y0i) = 0.041444244688
Phase-1 C[1] = 4.19741562515
Min(C1i) = 0  Max(C1i) = 32.2073584721
Min(Y1i) = 3.60216944051e-08  Max(Y1i) = 1
Phase-0 C[1] = 86.4575317982
Min(C0i) = 0  Max(C0i) = 177.096113359
Min(Y0i) = 0.958555755312  Max(Y0i) = 1
Done Interfacial Species Transfer Source Terms Calculation
ExecutionTime = 1.8 s

Done interface reconstruction
ExecutionTime = 1.8 s

Min(rho) = 177.096113359  Max(rho) = 900
Min(mu) = 3.5e-05  Max(mu) = 0.0007
Min(muf) = 3.5e-05  Max(muf) = 0.0007

Pressure corrector 1
DICPCG:  Solving for p_rgh, Initial residual = 0.00759063976802, Final residual = 6.00912598141e-16, No Iterations 46
time step continuity errors : sum local = 5.27953930524e-08, global = -1.25494413548e-09, cumulative = -9.2770964539e-09
Min(U) = (0.00925655855076 -0.000277194177657 0)  Max(U) = (0.0100577655489 6.39390216198e-05 0)
Min(p_rgh) = 29999999.9999  Max(p_rgh) = 30000000.0045
ExecutionTime = 1.8 s
Calculating two-phase advective fluxes
ExecutionTime = 1.85 s
alpha1:  avg = 0.507606955422  min = 0  undershoot = 0  max = 1.00000003282  overshoot = 3.2824435614e-08
alpha1 after clipping:  avg = 0.507606955025
ExecutionTime = 1.85 s

C1[0]:  avg = 394.673586879
C1[0] after clipping:  avg = 394.673586879
C0[0]:  avg = 0.630347466175
C0[0] after clipping:  avg = 0.630347466175
Done YAdvEqns
ExecutionTime = 1.86 s

Done interface reconstruction
ExecutionTime = 1.86 s

Done correcting thermo and transport props
ExecutionTime = 1.87 s

Done gradients and face interpolations for diffusion
ExecutionTime = 1.87 s

Phase-1 Ci = 394.673586879
Min(C1i) = 0  Max(C1i) = 785.709999376
Min(Y1i) = 0  Max(Y1i) = 1
C1i undershoot = 0  C1i overshoot = 0
Y1i undershoot = 0  Y1i overshoot = 0
Phase-1 Ci after clipping = 394.673586879
Min(C1i) = 0  Max(C1i) = 785.709999376
Min(Y1i) = 0  Max(Y1i) = 1
Phase-0 Ci = 0.630347466175
Min(C0i) = 0  Max(C0i) = 6.62939427383
Min(Y0i) = 0  Max(Y0i) = 0.0407622954167
C0i undershoot = 0  C0i overshoot = 0
Y0i undershoot = 0  Y0i overshoot = 0
Phase-0 Ci after clipping = 0.630347466175
Min(C0i) = 0  Max(C0i) = 6.62939427383
Min(Y0i) = 0  Max(Y0i) = 0.0407622954167
Done YDiffEqns
ExecutionTime = 1.87 s



Courant Number mean: 0.33031647407 max: 0.33795411998
Diffusion Courant Number mean: 0.000407945992572 max: 0.163178397029
deltaT = 0.00333333333333
Time = 0.08

Outer corrector 1
Phase-1 C[0] = 394.639730246
Min(C1i) = 0  Max(C1i) = 785.709999376
Min(Y1i) = 0  Max(Y1i) = 1
Phase-0 C[0] = 0.664204098935
Min(C0i) = 0  Max(C0i) = 6.98450489802
Min(Y0i) = 0  Max(Y0i) = 0.0434450892097
Phase-1 C[1] = 4.35264263202
Min(C1i) = 0  Max(C1i) = 33.4550529839
Min(Y1i) = 3.54241206368e-08  Max(Y1i) = 1
Phase-0 C[1] = 86.3761778488
Min(C0i) = 0  Max(C0i) = 177.096113359
Min(Y0i) = 0.95655491079  Max(Y0i) = 1
Done Interfacial Species Transfer Source Terms Calculation
ExecutionTime = 1.87 s

Done interface reconstruction
ExecutionTime = 1.88 s

Min(rho) = 177.096113359  Max(rho) = 900
Min(mu) = 3.5e-05  Max(mu) = 0.0007
Min(muf) = 3.5e-05  Max(muf) = 0.0007

Pressure corrector 1
DICPCG:  Solving for p_rgh, Initial residual = 0.00968800274514, Final residual = 7.07199617521e-16, No Iterations 46
time step continuity errors : sum local = 5.29380210894e-08, global = -6.51634048636e-10, cumulative = -9.92873050254e-09
Min(U) = (0.00930530163163 -0.000274496393856 0)  Max(U) = (0.0100554116183 6.51414798028e-05 0)
Min(p_rgh) = 29999999.9999  Max(p_rgh) = 30000000.0046
ExecutionTime = 1.88 s
Calculating two-phase advective fluxes
ExecutionTime = 1.93 s
alpha1:  avg = 0.507919262711  min = 0  undershoot = 0  max = 1.00000002509  overshoot = 2.5091380973e-08
alpha1 after clipping:  avg = 0.507919262137
ExecutionTime = 1.93 s

C1[0]:  avg = 394.765472609
C1[0] after clipping:  avg = 394.765472609
C0[0]:  avg = 0.657887821538
C0[0] after clipping:  avg = 0.657887821538
Done YAdvEqns
ExecutionTime = 1.93 s

Done interface reconstruction
ExecutionTime = 1.94 s

Done correcting thermo and transport props
ExecutionTime = 1.94 s

Done gradients and face interpolations for diffusion
ExecutionTime = 1.94 s

Phase-1 Ci = 394.765472609
Min(C1i) = 0  Max(C1i) = 785.709999376
Min(Y1i) = 0  Max(Y1i) = 1
C1i undershoot = 0  C1i overshoot = 0
Y1i undershoot = 0  Y1i overshoot = 0
Phase-1 Ci after clipping = 394.765472609
Min(C1i) = 0  Max(C1i) = 785.709999376
Min(Y1i) = 0  Max(Y1i) = 1
Phase-0 Ci = 0.657887821538
Min(C0i) = 0  Max(C0i) = 6.92482337364
Min(Y0i) = 0  Max(Y0i) = 0.0427639741257
C0i undershoot = 0  C0i overshoot = 0
Y0i undershoot = 0  Y0i overshoot = 0
Phase-0 Ci after clipping = 0.657887821538
Min(C0i) = 0  Max(C0i) = 6.92482337364
Min(Y0i) = 0  Max(Y0i) = 0.0427639741257
Done YDiffEqns
ExecutionTime = 1.95 s



Courant Number mean: 0.33064995226 max: 0.33790663275
Diffusion Courant Number mean: 0.000407946000666 max: 0.163178400266
deltaT = 0.00333333333333
Time = 0.0833333

Outer corrector 1
Phase-1 C[0] = 394.731788677
Min(C1i) = 0  Max(C1i) = 785.709999376
Min(Y1i) = 0  Max(Y1i) = 1
Phase-0 C[0] = 0.691571753443
Min(C0i) = 0  Max(C0i) = 7.27702598508
Min(Y0i) = 0  Max(Y0i) = 0.0454223764706
Phase-1 C[1] = 4.50281506212
Min(C1i) = 0  Max(C1i) = 34.6228539717
Min(Y1i) = 3.36299247339e-08  Max(Y1i) = 1
Phase-0 C[1] = 86.2966537777
Min(C0i) = 0  Max(C0i) = 177.096113359
Min(Y0i) = 0.954577623529  Max(Y0i) = 1
Done Interfacial Species Transfer Source Terms Calculation
ExecutionTime = 1.96 s

Done interface reconstruction
ExecutionTime = 1.96 s

Min(rho) = 177.096113359  Max(rho) = 900
Min(mu) = 3.5e-05  Max(mu) = 0.0007
Min(muf) = 3.5e-05  Max(muf) = 0.0007

Pressure corrector 1
DICPCG:  Solving for p_rgh, Initial residual = 0.00771086294086, Final residual = 6.24428619174e-16, No Iterations 46
time step continuity errors : sum local = 5.60837019614e-08, global = 1.36419120571e-09, cumulative = -8.56453929683e-09
Min(U) = (0.00935438830088 -0.000270675682454 0)  Max(U) = (0.0100526819302 6.62121660973e-05 0)
Min(p_rgh) = 29999999.9999  Max(p_rgh) = 30000000.0047
ExecutionTime = 1.96 s
Calculating two-phase advective fluxes
ExecutionTime = 2.02 s
alpha1:  avg = 0.508224259711  min = 0  undershoot = 0  max = 1.00000003431  overshoot = 3.43138424341e-08
alpha1 after clipping:  avg = 0.508224259279
ExecutionTime = 2.02 s

C1[0]:  avg = 394.856659234
C1[0] after clipping:  avg = 394.856659234
C0[0]:  avg = 0.684941326042
C0[0] after clipping:  avg = 0.684941326043
Done YAdvEqns
ExecutionTime = 2.02 s

Done interface reconstruction
ExecutionTime = 2.02 s

Done correcting thermo and transport props
ExecutionTime = 2.03 s

Done gradients and face interpolations for diffusion
ExecutionTime = 2.03 s

Phase-1 Ci = 394.856659234
Min(C1i) = 0  Max(C1i) = 785.709999376
Min(Y1i) = 0  Max(Y1i) = 1
C1i undershoot = 0  C1i overshoot = 0
Y1i undershoot = 0  Y1i overshoot = 0
Phase-1 Ci after clipping = 394.856659234
Min(C1i) = 0  Max(C1i) = 785.709999376
Min(Y1i) = 0  Max(Y1i) = 1
Phase-0 Ci = 0.684941326043
Min(C0i) = 0  Max(C0i) = 7.21534569348
Min(Y0i) = 0  Max(Y0i) = 0.044760785277
C0i undershoot = 0  C0i overshoot = 0
Y0i undershoot = 0  Y0i overshoot = 0
Phase-0 Ci after clipping = 0.684941326043
Min(C0i) = 0  Max(C0i) = 7.21534569348
Min(Y0i) = 0  Max(Y0i) = 0.044760785277
Done YDiffEqns
ExecutionTime = 2.03 s



Courant Number mean: 0.330978075121 max: 0.337826311564
Diffusion Courant Number mean: 0.000407945975377 max: 0.163178390151
deltaT = 0.00333333333333
Time = 0.0866667

Outer corrector 1
Phase-1 C[0] = 394.823136316
Min(C1i) = 0  Max(C1i) = 785.709999376
Min(Y1i) = 0  Max(Y1i) = 1
Phase-0 C[0] = 0.718464244377
Min(C0i) = 0  Max(C0i) = 7.56465694578
Min(Y0i) = 0  Max(Y0i) = 0.0473809733571
Phase-1 C[1] = 4.64793099882
Min(C1i) = 0  Max(C1i) = 35.7011134912
Min(Y1i) = 3.30560423478e-08  Max(Y1i) = 1
Phase-0 C[1] = 86.2189232075
Min(C0i) = 0  Max(C0i) = 177.096113359
Min(Y0i) = 0.952619026643  Max(Y0i) = 1
Done Interfacial Species Transfer Source Terms Calculation
ExecutionTime = 2.03 s

Done interface reconstruction
ExecutionTime = 2.04 s

Min(rho) = 177.096113359  Max(rho) = 900
Min(mu) = 3.5e-05  Max(mu) = 0.0007
Min(muf) = 3.5e-05  Max(muf) = 0.0007

Pressure corrector 1
DICPCG:  Solving for p_rgh, Initial residual = 0.00819433164619, Final residual = 6.72959535091e-16, No Iterations 46
time step continuity errors : sum local = 5.06008372431e-08, global = 8.85536855229e-10, cumulative = -7.6790024416e-09
Min(U) = (0.0094027716877 -0.000268257557051 0)  Max(U) = (0.0100518640668 6.72974566657e-05 0)
Min(p_rgh) = 29999999.9999  Max(p_rgh) = 30000000.0046
ExecutionTime = 2.04 s
Calculating two-phase advective fluxes
ExecutionTime = 2.09 s
alpha1:  avg = 0.508521644039  min = 0  undershoot = 0  max = 1.00000003202  overshoot = 3.20247193208e-08
alpha1 after clipping:  avg = 0.508521643547
ExecutionTime = 2.09 s

C1[0]:  avg = 394.946906681
C1[0] after clipping:  avg = 394.946906681
C0[0]:  avg = 0.711519665107
C0[0] after clipping:  avg = 0.711519665107
Done YAdvEqns
ExecutionTime = 2.09 s

Done interface reconstruction
ExecutionTime = 2.1 s

Done correcting thermo and transport props
ExecutionTime = 2.11 s

Done gradients and face interpolations for diffusion
ExecutionTime = 2.11 s

Phase-1 Ci = 394.946906681
Min(C1i) = 0  Max(C1i) = 785.709999376
Min(Y1i) = 0  Max(Y1i) = 1
C1i undershoot = 0  C1i overshoot = 0
Y1i undershoot = 0  Y1i overshoot = 0
Phase-1 Ci after clipping = 394.946906681
Min(C1i) = 0  Max(C1i) = 785.709999376
Min(Y1i) = 0  Max(Y1i) = 1
Phase-0 Ci = 0.711519665107
Min(C0i) = 0  Max(C0i) = 7.5008239056
Min(Y0i) = 0  Max(Y0i) = 0.046751580251
C0i undershoot = 0  C0i overshoot = 0
Y0i undershoot = 0  Y0i overshoot = 0
Phase-0 Ci after clipping = 0.711519665107
Min(C0i) = 0  Max(C0i) = 7.5008239056
Min(Y0i) = 0  Max(Y0i) = 0.046751580251
Done YDiffEqns
ExecutionTime = 2.11 s



Courant Number mean: 0.33129198258 max: 0.337725156752
Diffusion Courant Number mean: 0.000407945938384 max: 0.163178375354
deltaT = 0.00333333333333
Time = 0.09

Outer corrector 1
Phase-1 C[0] = 394.913534445
Min(C1i) = 0  Max(C1i) = 785.709999376
Min(Y1i) = 0  Max(Y1i) = 1
Phase-0 C[0] = 0.744891901046
Min(C0i) = 0  Max(C0i) = 7.84725577158
Min(Y0i) = 0  Max(Y0i) = 0.0493430010314
Phase-1 C[1] = 4.78807369571
Min(C1i) = 0  Max(C1i) = 36.7055262236
Min(Y1i) = 3.4040946395e-08  Max(Y1i) = 1
Phase-0 C[1] = 86.1429469194
Min(C0i) = 0  Max(C0i) = 177.096113359
Min(Y0i) = 0.950656998969  Max(Y0i) = 1
Done Interfacial Species Transfer Source Terms Calculation
ExecutionTime = 2.11 s

Done interface reconstruction
ExecutionTime = 2.12 s

Min(rho) = 177.096113359  Max(rho) = 900
Min(mu) = 3.5e-05  Max(mu) = 0.0007
Min(muf) = 3.5e-05  Max(muf) = 0.0007

Pressure corrector 1
DICPCG:  Solving for p_rgh, Initial residual = 0.0107948048976, Final residual = 5.54836581367e-16, No Iterations 46
time step continuity errors : sum local = 5.51759836054e-08, global = -2.80016498299e-09, cumulative = -1.04791674246e-08
Min(U) = (0.00944974487908 -0.000264436910673 0)  Max(U) = (0.0100538867205 6.81803122334e-05 0)
Min(p_rgh) = 29999999.9999  Max(p_rgh) = 30000000.0044
ExecutionTime = 2.12 s
Calculating two-phase advective fluxes
ExecutionTime = 2.17 s
alpha1:  avg = 0.508811287017  min = 0  undershoot = 0  max = 1.00000002691  overshoot = 2.69052840007e-08
alpha1 after clipping:  avg = 0.508811286627
ExecutionTime = 2.17 s

C1[0]:  avg = 395.036022399
C1[0] after clipping:  avg = 395.036022399
C0[0]:  avg = 0.737633824874
C0[0] after clipping:  avg = 0.737633824874
Done YAdvEqns
ExecutionTime = 2.17 s

Done interface reconstruction
ExecutionTime = 2.17 s

Done correcting thermo and transport props
ExecutionTime = 2.18 s

Done gradients and face interpolations for diffusion
ExecutionTime = 2.18 s

Phase-1 Ci = 395.036022399
Min(C1i) = 0  Max(C1i) = 785.709999376
Min(Y1i) = 0  Max(Y1i) = 1
C1i undershoot = 0  C1i overshoot = 0
Y1i undershoot = 0  Y1i overshoot = 0
Phase-1 Ci after clipping = 395.036022399
Min(C1i) = 0  Max(C1i) = 785.709999376
Min(Y1i) = 0  Max(Y1i) = 1
Phase-0 Ci = 0.737633824874
Min(C0i) = 0  Max(C0i) = 7.78121155726
Min(Y0i) = 0  Max(Y0i) = 0.0487351523022
C0i undershoot = 0  C0i overshoot = 0
Y0i undershoot = 0  Y0i overshoot = 0
Phase-0 Ci after clipping = 0.737633824874
Min(C0i) = 0  Max(C0i) = 7.78121155726
Min(Y0i) = 0  Max(Y0i) = 0.0487351523022
Done YDiffEqns
ExecutionTime = 2.18 s



Courant Number mean: 0.331585912328 max: 0.33762938335
Diffusion Courant Number mean: 0.000407945854492 max: 0.163178341797
deltaT = 0.00333333333333
Time = 0.0933333

Outer corrector 1
Phase-1 C[0] = 395.002720496
Min(C1i) = 0  Max(C1i) = 785.709999376
Min(Y1i) = 0  Max(Y1i) = 1
Phase-0 C[0] = 0.770935727938
Min(C0i) = 0  Max(C0i) = 8.12476963866
Min(Y0i) = 0  Max(Y0i) = 0.051282787927
Phase-1 C[1] = 4.92389993227
Min(C1i) = 0  Max(C1i) = 37.6506275534
Min(Y1i) = 3.70754786871e-08  Max(Y1i) = 1
Phase-0 C[1] = 86.0681716062
Min(C0i) = 0  Max(C0i) = 177.096113359
Min(Y0i) = 0.948717212073  Max(Y0i) = 1
Done Interfacial Species Transfer Source Terms Calculation
ExecutionTime = 2.2 s

Done interface reconstruction
ExecutionTime = 2.21 s

Min(rho) = 177.096113359  Max(rho) = 900
Min(mu) = 3.5e-05  Max(mu) = 0.0007
Min(muf) = 3.5e-05  Max(muf) = 0.0007

Pressure corrector 1
DICPCG:  Solving for p_rgh, Initial residual = 0.0112191880213, Final residual = 3.38426953345e-16, No Iterations 47
time step continuity errors : sum local = 4.68681371563e-08, global = 3.1760254501e-09, cumulative = -7.30314197449e-09
Min(U) = (0.00949048310475 -0.000262385714489 0)  Max(U) = (0.0100519613489 6.9155187141e-05 0)
Min(p_rgh) = 29999999.9999  Max(p_rgh) = 30000000.0032
ExecutionTime = 2.21 s
Calculating two-phase advective fluxes
ExecutionTime = 2.26 s
alpha1:  avg = 0.509094028919  min = 0  undershoot = 0  max = 1.00000003111  overshoot = 3.11053165447e-08
alpha1 after clipping:  avg = 0.509094028489
ExecutionTime = 2.26 s

C1[0]:  avg = 395.124003521
C1[0] after clipping:  avg = 395.124003521
C0[0]:  avg = 0.763367177041
C0[0] after clipping:  avg = 0.763367177041
Done YAdvEqns
ExecutionTime = 2.26 s

Done interface reconstruction
ExecutionTime = 2.27 s

Done correcting thermo and transport props
ExecutionTime = 2.27 s

Done gradients and face interpolations for diffusion
ExecutionTime = 2.28 s

Phase-1 Ci = 395.124003521
Min(C1i) = 0  Max(C1i) = 785.709999376
Min(Y1i) = 0  Max(Y1i) = 1
C1i undershoot = 0  C1i overshoot = 0
Y1i undershoot = 0  Y1i overshoot = 0
Phase-1 Ci after clipping = 395.124003521
Min(C1i) = 0  Max(C1i) = 785.709999376
Min(Y1i) = 0  Max(Y1i) = 1
Phase-0 Ci = 0.763367177041
Min(C0i) = 0  Max(C0i) = 8.05654398033
Min(Y0i) = 0  Max(Y0i) = 0.0507101725044
C0i undershoot = 0  C0i overshoot = 0
Y0i undershoot = 0  Y0i overshoot = 0
Phase-0 Ci after clipping = 0.763367177041
Min(C0i) = 0  Max(C0i) = 8.05654398033
Min(Y0i) = 0  Max(Y0i) = 0.0507101725044
Done YDiffEqns
ExecutionTime = 2.28 s



Courant Number mean: 0.331790378751 max: 0.337625717516
Diffusion Courant Number mean: 0.000407945895021 max: 0.163178358008
deltaT = 0.00333333333333
Time = 0.0966667

Outer corrector 1
Phase-1 C[0] = 395.090811282
Min(C1i) = 0  Max(C1i) = 785.709999376
Min(Y1i) = 0  Max(Y1i) = 1
Phase-0 C[0] = 0.796559416099
Min(C0i) = 0  Max(C0i) = 8.39722604738
Min(Y0i) = 0  Max(Y0i) = 0.0532076141693
Phase-1 C[1] = 5.05517856135
Min(C1i) = 0  Max(C1i) = 38.5483950579
Min(Y1i) = 3.44879672598e-08  Max(Y1i) = 1
Phase-0 C[1] = 85.995259126
Min(C0i) = 0  Max(C0i) = 177.096113359
Min(Y0i) = 0.946792385831  Max(Y0i) = 1
Done Interfacial Species Transfer Source Terms Calculation
ExecutionTime = 2.28 s

Done interface reconstruction
ExecutionTime = 2.28 s

Min(rho) = 177.096113359  Max(rho) = 900
Min(mu) = 3.5e-05  Max(mu) = 0.0007
Min(muf) = 3.5e-05  Max(muf) = 0.0007

Pressure corrector 1
DICPCG:  Solving for p_rgh, Initial residual = 0.0100608487663, Final residual = 2.50465002887e-16, No Iterations 47
time step continuity errors : sum local = 4.94763961219e-08, global = -3.93547674194e-10, cumulative = -7.69668964869e-09
Min(U) = (0.00953292454542 -0.000260164275275 0)  Max(U) = (0.0100552292815 6.99930285783e-05 0)
Min(p_rgh) = 29999999.9999  Max(p_rgh) = 30000000.0038
ExecutionTime = 2.29 s
Calculating two-phase advective fluxes
ExecutionTime = 2.33 s
alpha1:  avg = 0.509369293867  min = 0  undershoot = 0  max = 1.00000007129  overshoot = 7.12872110231e-08
alpha1 after clipping:  avg = 0.509369293277
ExecutionTime = 2.33 s

C1[0]:  avg = 395.210633367
C1[0] after clipping:  avg = 395.210633367
C0[0]:  avg = 0.78867991683
C0[0] after clipping:  avg = 0.78867991683
Done YAdvEqns
ExecutionTime = 2.34 s

Done interface reconstruction
ExecutionTime = 2.34 s

Done correcting thermo and transport props
ExecutionTime = 2.35 s

Done gradients and face interpolations for diffusion
ExecutionTime = 2.35 s

Phase-1 Ci = 395.210633367
Min(C1i) = 0  Max(C1i) = 785.709999376
Min(Y1i) = 0  Max(Y1i) = 1
C1i undershoot = 0  C1i overshoot = 0
Y1i undershoot = 0  Y1i overshoot = 0
Phase-1 Ci after clipping = 395.210633367
Min(C1i) = 0  Max(C1i) = 785.709999376
Min(Y1i) = 0  Max(Y1i) = 1
Phase-0 Ci = 0.78867991683
Min(C0i) = 0  Max(C0i) = 8.32691885539
Min(Y0i) = 0  Max(Y0i) = 0.0526750220382
C0i undershoot = 0  C0i overshoot = 0
Y0i undershoot = 0  Y0i overshoot = 0
Phase-0 Ci after clipping = 0.78867991683
Min(C0i) = 0  Max(C0i) = 8.32691885539
Min(Y0i) = 0  Max(Y0i) = 0.0526750220382
Done YDiffEqns
ExecutionTime = 2.35 s



Courant Number mean: 0.332030364909 max: 0.337547156616
Diffusion Courant Number mean: 0.000407945988646 max: 0.163178395458
deltaT = 0.00333333333333
Time = 0.1

Outer corrector 1
Phase-1 C[0] = 395.177548215
Min(C1i) = 0  Max(C1i) = 785.709999376
Min(Y1i) = 0  Max(Y1i) = 1
Phase-0 C[0] = 0.821765069507
Min(C0i) = 0  Max(C0i) = 8.66471659052
Min(Y0i) = 0  Max(Y0i) = 0.0551321348897
Phase-1 C[1] = 5.1820397745
Min(C1i) = 0  Max(C1i) = 39.4091842291
Min(Y1i) = 3.05509614273e-08  Max(Y1i) = 1
Phase-0 C[1] = 85.9239852994
Min(C0i) = 0  Max(C0i) = 177.096113359
Min(Y0i) = 0.94486786511  Max(Y0i) = 1
Done Interfacial Species Transfer Source Terms Calculation
ExecutionTime = 2.35 s

Done interface reconstruction
ExecutionTime = 2.36 s

Min(rho) = 177.096113359  Max(rho) = 900
Min(mu) = 3.5e-05  Max(mu) = 0.0007
Min(muf) = 3.5e-05  Max(muf) = 0.0007

Pressure corrector 1
DICPCG:  Solving for p_rgh, Initial residual = 0.0102834788283, Final residual = 2.43297137664e-16, No Iterations 46
time step continuity errors : sum local = 5.3278486931e-08, global = -6.4441676672e-10, cumulative = -8.34110641541e-09
Min(U) = (0.00957362666207 -0.000257885901049 0)  Max(U) = (0.0100578408151 7.07088994661e-05 0)
Min(p_rgh) = 29999999.9999  Max(p_rgh) = 30000000.0036
ExecutionTime = 2.36 s
Calculating two-phase advective fluxes
ExecutionTime = 2.41 s
alpha1:  avg = 0.509637145176  min = 0  undershoot = 0  max = 1.00000002448  overshoot = 2.44809919003e-08
alpha1 after clipping:  avg = 0.509637144676
ExecutionTime = 2.41 s

C1[0]:  avg = 395.295827051
C1[0] after clipping:  avg = 395.295827051
C0[0]:  avg = 0.813576102031
C0[0] after clipping:  avg = 0.813576102031
Done YAdvEqns
ExecutionTime = 2.41 s

Done interface reconstruction
ExecutionTime = 2.41 s

Done correcting thermo and transport props
ExecutionTime = 2.42 s

Done gradients and face interpolations for diffusion
ExecutionTime = 2.43 s

Phase-1 Ci = 395.295827051
Min(C1i) = 0  Max(C1i) = 785.709999376
Min(Y1i) = 0  Max(Y1i) = 1
C1i undershoot = 0  C1i overshoot = 0
Y1i undershoot = 0  Y1i overshoot = 0
Phase-1 Ci after clipping = 395.295827051
Min(C1i) = 0  Max(C1i) = 785.709999376
Min(Y1i) = 0  Max(Y1i) = 1
Phase-0 Ci = 0.813576102031
Min(C0i) = 0  Max(C0i) = 8.59248824817
[...]
Min(C0i) = 0  Max(C0i) = 19.1851194694
Min(Y0i) = 0  Max(Y0i) = 0.178711263248
Phase-1 C[1] = 7.81055396191
Min(C1i) = 0  Max(C1i) = 58.8820327023
Min(Y1i) = 1.25170918075e-09  Max(Y1i) = 1
Phase-0 C[1] = 83.4215070297
Min(C0i) = 0  Max(C0i) = 177.096113359
Min(Y0i) = 0.821288736752  Max(Y0i) = 1
Done Interfacial Species Transfer Source Terms Calculation
ExecutionTime = 23.25 s

Done interface reconstruction
ExecutionTime = 23.25 s

Min(rho) = 177.096113359  Max(rho) = 900
Min(mu) = 3.5e-05  Max(mu) = 0.0007
Min(muf) = 3.5e-05  Max(muf) = 0.0007

Pressure corrector 1
DICPCG:  Solving for p_rgh, Initial residual = 0.00656655770354, Final residual = 6.78070147306e-16, No Iterations 47
time step continuity errors : sum local = 5.23487458365e-08, global = 8.89697040858e-10, cumulative = 2.91325748333e-08
Min(U) = (0.00979604139766 -0.000260594977667 0)  Max(U) = (0.0100681977204 8.31516010343e-05 0)
Min(p_rgh) = 29999999.9984  Max(p_rgh) = 30000000
ExecutionTime = 23.25 s
Calculating two-phase advective fluxes
ExecutionTime = 23.31 s
alpha1:  avg = 0.519373854719  min = 0  undershoot = 0  max = 1.00000003711  overshoot = 3.71120734144e-08
alpha1 after clipping:  avg = 0.519373854369
ExecutionTime = 23.31 s

C1[0]:  avg = 400.389874399
C1[0] after clipping:  avg = 400.389874339
C0[0]:  avg = 1.57167957608
C0[0] after clipping:  avg = 1.57167957608
Done YAdvEqns
ExecutionTime = 23.31 s

Done interface reconstruction
ExecutionTime = 23.31 s

Done correcting thermo and transport props
ExecutionTime = 23.32 s

Done gradients and face interpolations for diffusion
ExecutionTime = 23.32 s

Phase-1 Ci = 400.389874339
Min(C1i) = 0  Max(C1i) = 785.709999376
Min(Y1i) = 0  Max(Y1i) = 1
C1i undershoot = 0  C1i overshoot = 0
Y1i undershoot = 0  Y1i overshoot = 0
Phase-1 Ci after clipping = 400.389874339
Min(C1i) = 0  Max(C1i) = 785.709999376
Min(Y1i) = 0  Max(Y1i) = 1
Phase-0 Ci = 1.57167957608
Min(C0i) = 0  Max(C0i) = 19.0524694647
Min(Y0i) = 0  Max(Y0i) = 0.177425695417
C0i undershoot = 0  C0i overshoot = 0
Y0i undershoot = 0  Y0i overshoot = 0
Phase-0 Ci after clipping = 1.57167957608
Min(C0i) = 0  Max(C0i) = 19.0524694647
Min(Y0i) = 0  Max(Y0i) = 0.177425695417
Done YDiffEqns
ExecutionTime = 23.32 s



Courant Number mean: 0.333401381957 max: 0.338324013639
Diffusion Courant Number mean: 0.000407946538218 max: 0.163178615287
deltaT = 0.00333333333333
Time = 0.98

Outer corrector 1
Phase-1 C[0] = 400.360286187
Min(C1i) = 0  Max(C1i) = 785.709999376
Min(Y1i) = 0  Max(Y1i) = 1
Phase-0 C[0] = 1.60126772788
Min(C0i) = 0  Max(C0i) = 19.2000715074
Min(Y0i) = 0  Max(Y0i) = 0.178800236136
Phase-1 C[1] = 7.81058803934
Min(C1i) = 0  Max(C1i) = 58.8952467785
Min(Y1i) = 2.11574813225e-09  Max(Y1i) = 1
Phase-0 C[1] = 83.4221112077
Min(C0i) = 0  Max(C0i) = 177.096113359
Min(Y0i) = 0.821199763864  Max(Y0i) = 1
Done Interfacial Species Transfer Source Terms Calculation
ExecutionTime = 23.32 s

Done interface reconstruction
ExecutionTime = 23.33 s

Min(rho) = 177.096113359  Max(rho) = 900
Min(mu) = 3.5e-05  Max(mu) = 0.0007
Min(muf) = 3.5e-05  Max(muf) = 0.0007

Pressure corrector 1
DICPCG:  Solving for p_rgh, Initial residual = 0.00615122136387, Final residual = 3.43583052649e-16, No Iterations 47
time step continuity errors : sum local = 4.95449474346e-08, global = -1.97639668026e-10, cumulative = 2.89349351653e-08
Min(U) = (0.00979594965843 -0.000260844091108 0)  Max(U) = (0.0100676856434 8.32022267788e-05 0)
Min(p_rgh) = 29999999.9991  Max(p_rgh) = 30000000.0002
ExecutionTime = 23.33 s
Calculating two-phase advective fluxes
ExecutionTime = 23.38 s
alpha1:  avg = 0.519370662911  min = 0  undershoot = 0  max = 1.00000002486  overshoot = 2.48594924646e-08
alpha1 after clipping:  avg = 0.519370662548
ExecutionTime = 23.38 s

C1[0]:  avg = 400.387344545
C1[0] after clipping:  avg = 400.387344525
C0[0]:  avg = 1.57163126192
C0[0] after clipping:  avg = 1.57163126192
Done YAdvEqns
ExecutionTime = 23.38 s

Done interface reconstruction
ExecutionTime = 23.39 s

Done correcting thermo and transport props
ExecutionTime = 23.39 s

Done gradients and face interpolations for diffusion
ExecutionTime = 23.4 s

Phase-1 Ci = 400.387344525
Min(C1i) = 0  Max(C1i) = 785.709999376
Min(Y1i) = 0  Max(Y1i) = 1
C1i undershoot = 0  C1i overshoot = 0
Y1i undershoot = 0  Y1i overshoot = 0
Phase-1 Ci after clipping = 400.387344525
Min(C1i) = 0  Max(C1i) = 785.709999376
Min(Y1i) = 0  Max(Y1i) = 1
Phase-0 Ci = 1.57163126192
Min(C0i) = 0  Max(C0i) = 19.0628679826
Min(Y0i) = 0  Max(Y0i) = 0.177471811085
C0i undershoot = 0  C0i overshoot = 0
Y0i undershoot = 0  Y0i overshoot = 0
Phase-0 Ci after clipping = 1.57163126192
Min(C0i) = 0  Max(C0i) = 19.0628679826
Min(Y0i) = 0  Max(Y0i) = 0.177471811085
Done YDiffEqns
ExecutionTime = 23.4 s



Courant Number mean: 0.333400140171 max: 0.338327204934
Diffusion Courant Number mean: 0.000407946538218 max: 0.163178615287
deltaT = 0.00333333333333
Time = 0.983333

Outer corrector 1
Phase-1 C[0] = 400.357798137
Min(C1i) = 0  Max(C1i) = 785.709999376
Min(Y1i) = 0  Max(Y1i) = 1
Phase-0 C[0] = 1.60117764939
Min(C0i) = 0  Max(C0i) = 19.2111377881
Min(Y0i) = 0  Max(Y0i) = 0.178852175831
Phase-1 C[1] = 7.81048183198
Min(C1i) = 0  Max(C1i) = 58.9079547572
Min(Y1i) = 2.19515483568e-09  Max(Y1i) = 1
Phase-0 C[1] = 83.422852957
Min(C0i) = 0  Max(C0i) = 177.096113359
Min(Y0i) = 0.821147824169  Max(Y0i) = 1
Done Interfacial Species Transfer Source Terms Calculation
ExecutionTime = 23.41 s

Done interface reconstruction
ExecutionTime = 23.41 s

Min(rho) = 177.096113359  Max(rho) = 900
Min(mu) = 3.5e-05  Max(mu) = 0.0007
Min(muf) = 3.5e-05  Max(muf) = 0.0007

Pressure corrector 1
DICPCG:  Solving for p_rgh, Initial residual = 0.00523560327008, Final residual = 2.39658705743e-16, No Iterations 47
time step continuity errors : sum local = 5.09270055437e-08, global = -3.43790021117e-09, cumulative = 2.54970349541e-08
Min(U) = (0.0097954180155 -0.000261167930434 0)  Max(U) = (0.0100681505205 8.31797416178e-05 0)
Min(p_rgh) = 29999999.9992  Max(p_rgh) = 30000000.0003
ExecutionTime = 23.42 s
Calculating two-phase advective fluxes
ExecutionTime = 23.47 s
alpha1:  avg = 0.519367353037  min = 0  undershoot = 0  max = 1.00000002887  overshoot = 2.88725616748e-08
alpha1 after clipping:  avg = 0.519367352667
ExecutionTime = 23.47 s

C1[0]:  avg = 400.384862651
C1[0] after clipping:  avg = 400.38486256
C0[0]:  avg = 1.57152973367
C0[0] after clipping:  avg = 1.57152973367
Done YAdvEqns
ExecutionTime = 23.47 s

Done interface reconstruction
ExecutionTime = 23.47 s

Done correcting thermo and transport props
ExecutionTime = 23.48 s

Done gradients and face interpolations for diffusion
ExecutionTime = 23.48 s

Phase-1 Ci = 400.38486256
Min(C1i) = 0  Max(C1i) = 785.709999376
Min(Y1i) = 0  Max(Y1i) = 1
C1i undershoot = 0  C1i overshoot = 0
Y1i undershoot = 0  Y1i overshoot = 0
Phase-1 Ci after clipping = 400.38486256
Min(C1i) = 0  Max(C1i) = 785.709999376
Min(Y1i) = 0  Max(Y1i) = 1
Phase-0 Ci = 1.57152973367
Min(C0i) = 0  Max(C0i) = 19.0695017801
Min(Y0i) = 0  Max(Y0i) = 0.177481415266
C0i undershoot = 0  C0i overshoot = 0
Y0i undershoot = 0  Y0i overshoot = 0
Phase-0 Ci after clipping = 1.57152973367
Min(C0i) = 0  Max(C0i) = 19.0695017801
Min(Y0i) = 0  Max(Y0i) = 0.177481415266
Done YDiffEqns
ExecutionTime = 23.49 s



Courant Number mean: 0.333401103259 max: 0.338339768513
Diffusion Courant Number mean: 0.000407946538218 max: 0.163178615287
deltaT = 0.00333333333333
Time = 0.986667

Outer corrector 1
Phase-1 C[0] = 400.355212836
Min(C1i) = 0  Max(C1i) = 785.709999376
Min(Y1i) = 0  Max(Y1i) = 1
Phase-0 C[0] = 1.60117945805
Min(C0i) = 0  Max(C0i) = 19.219338769
Min(Y0i) = 0  Max(Y0i) = 0.178875960397
Phase-1 C[1] = 7.81077485369
Min(C1i) = 0  Max(C1i) = 58.9202440128
Min(Y1i) = 2.74401990019e-09  Max(Y1i) = 1
Phase-0 C[1] = 83.4231289882
Min(C0i) = 0  Max(C0i) = 177.096113359
Min(Y0i) = 0.821124039603  Max(Y0i) = 1
Done Interfacial Species Transfer Source Terms Calculation
ExecutionTime = 23.49 s

Done interface reconstruction
ExecutionTime = 23.49 s

Min(rho) = 177.096113359  Max(rho) = 900
Min(mu) = 3.5e-05  Max(mu) = 0.0007
Min(muf) = 3.5e-05  Max(muf) = 0.0007

Pressure corrector 1
DICPCG:  Solving for p_rgh, Initial residual = 0.00646085168446, Final residual = 4.83448706775e-16, No Iterations 47
time step continuity errors : sum local = 5.02842029046e-08, global = -4.78723934357e-10, cumulative = 2.50183110197e-08
Min(U) = (0.0097948878054 -0.000261490552336 0)  Max(U) = (0.0100684316834 8.31647905067e-05 0)
Min(p_rgh) = 29999999.9987  Max(p_rgh) = 30000000
ExecutionTime = 23.49 s
Calculating two-phase advective fluxes
ExecutionTime = 23.54 s
alpha1:  avg = 0.519364701518  min = 0  undershoot = 0  max = 1.00000004435  overshoot = 4.43463816779e-08
alpha1 after clipping:  avg = 0.519364701264
ExecutionTime = 23.54 s

C1[0]:  avg = 400.382489882
C1[0] after clipping:  avg = 400.382489879
C0[0]:  avg = 1.57153078844
C0[0] after clipping:  avg = 1.57153078844
Done YAdvEqns
ExecutionTime = 23.55 s

Done interface reconstruction
ExecutionTime = 23.55 s

Done correcting thermo and transport props
ExecutionTime = 23.56 s

Done gradients and face interpolations for diffusion
ExecutionTime = 23.56 s

Phase-1 Ci = 400.382489879
Min(C1i) = 0  Max(C1i) = 785.709999376
Min(Y1i) = 0  Max(Y1i) = 1
C1i undershoot = 0  C1i overshoot = 0
Y1i undershoot = 0  Y1i overshoot = 0
Phase-1 Ci after clipping = 400.382489879
Min(C1i) = 0  Max(C1i) = 785.709999376
Min(Y1i) = 0  Max(Y1i) = 1
Phase-0 Ci = 1.57153078844
Min(C0i) = 0  Max(C0i) = 19.0499165571
Min(Y0i) = 0  Max(Y0i) = 0.177245781417
C0i undershoot = 0  C0i overshoot = 0
Y0i undershoot = 0  Y0i overshoot = 0
Phase-0 Ci after clipping = 1.57153078844
Min(C0i) = 0  Max(C0i) = 19.0499165571
Min(Y0i) = 0  Max(Y0i) = 0.177245781417
Done YDiffEqns
ExecutionTime = 23.56 s



Courant Number mean: 0.333377877477 max: 0.338350754847
Diffusion Courant Number mean: 0.000407946538218 max: 0.163178615287
deltaT = 0.00333333333333
Time = 0.99

Outer corrector 1
Phase-1 C[0] = 400.353062228
Min(C1i) = 0  Max(C1i) = 785.709999376
Min(Y1i) = 0  Max(Y1i) = 1
Phase-0 C[0] = 1.60095843901
Min(C0i) = 0  Max(C0i) = 19.2033772866
Min(Y0i) = 0  Max(Y0i) = 0.178673623205
Phase-1 C[1] = 7.81025079885
Min(C1i) = 0  Max(C1i) = 58.9321818812
Min(Y1i) = 3.02926783657e-09  Max(Y1i) = 1
Phase-0 C[1] = 83.4244109889
Min(C0i) = 0  Max(C0i) = 177.096113359
Min(Y0i) = 0.821326376795  Max(Y0i) = 1
Done Interfacial Species Transfer Source Terms Calculation
ExecutionTime = 23.56 s

Done interface reconstruction
ExecutionTime = 23.57 s

Min(rho) = 177.096113359  Max(rho) = 900
Min(mu) = 3.5e-05  Max(mu) = 0.0007
Min(muf) = 3.5e-05  Max(muf) = 0.0007

Pressure corrector 1
DICPCG:  Solving for p_rgh, Initial residual = 0.0105192464303, Final residual = 2.59942312701e-16, No Iterations 48
time step continuity errors : sum local = 5.14919665507e-08, global = -9.12984398858e-10, cumulative = 2.41053266209e-08
Min(U) = (0.00979450005916 -0.000261761709746 0)  Max(U) = (0.0100687214968 8.32171626698e-05 0)
Min(p_rgh) = 29999999.9998  Max(p_rgh) = 30000000.001
ExecutionTime = 23.57 s
Calculating two-phase advective fluxes
ExecutionTime = 23.62 s
alpha1:  avg = 0.519360958818  min = 0  undershoot = 0  max = 1.00000003035  overshoot = 3.03476990204e-08
alpha1 after clipping:  avg = 0.519360958492
ExecutionTime = 23.62 s

C1[0]:  avg = 400.380093429
C1[0] after clipping:  avg = 400.380093411
C0[0]:  avg = 1.57131274759
C0[0] after clipping:  avg = 1.57131274759
Done YAdvEqns
ExecutionTime = 23.62 s

Done interface reconstruction
ExecutionTime = 23.63 s

Done correcting thermo and transport props
ExecutionTime = 23.63 s

Done gradients and face interpolations for diffusion
ExecutionTime = 23.63 s

Phase-1 Ci = 400.380093411
Min(C1i) = 0  Max(C1i) = 785.709999376
Min(Y1i) = 0  Max(Y1i) = 1
C1i undershoot = 0  C1i overshoot = 0
Y1i undershoot = 0  Y1i overshoot = 0
Phase-1 Ci after clipping = 400.380093411
Min(C1i) = 0  Max(C1i) = 785.709999376
Min(Y1i) = 0  Max(Y1i) = 1
Phase-0 Ci = 1.57131274759
Min(C0i) = 0  Max(C0i) = 19.0334158009
Min(Y0i) = 0  Max(Y0i) = 0.177036685892
C0i undershoot = 0  C0i overshoot = 0
Y0i undershoot = 0  Y0i overshoot = 0
Phase-0 Ci after clipping = 1.57131274759
Min(C0i) = 0  Max(C0i) = 19.0334158009
Min(Y0i) = 0  Max(Y0i) = 0.177036685892
Done YDiffEqns
ExecutionTime = 23.64 s



Courant Number mean: 0.33341342899 max: 0.338361501587
Diffusion Courant Number mean: 0.000407946538218 max: 0.163178615287
deltaT = 0.00333333333333
Time = 0.993333

Outer corrector 1
Phase-1 C[0] = 400.350469267
Min(C1i) = 0  Max(C1i) = 785.709999376
Min(Y1i) = 0  Max(Y1i) = 1
Phase-0 C[0] = 1.60093689198
Min(C0i) = 0  Max(C0i) = 19.1870354186
Min(Y0i) = 0  Max(Y0i) = 0.178465557529
Phase-1 C[1] = 7.81048005455
Min(C1i) = 0  Max(C1i) = 58.9438537524
Min(Y1i) = 3.92147647688e-09  Max(Y1i) = 1
Phase-0 C[1] = 83.4245183384
Min(C0i) = 0  Max(C0i) = 177.096113359
Min(Y0i) = 0.821534442471  Max(Y0i) = 1
Done Interfacial Species Transfer Source Terms Calculation
ExecutionTime = 23.65 s

Done interface reconstruction
ExecutionTime = 23.65 s

Min(rho) = 177.096113359  Max(rho) = 900
Min(mu) = 3.5e-05  Max(mu) = 0.0007
Min(muf) = 3.5e-05  Max(muf) = 0.0007

Pressure corrector 1
DICPCG:  Solving for p_rgh, Initial residual = 0.0142983064488, Final residual = 2.8723389256e-16, No Iterations 48
time step continuity errors : sum local = 5.48549329905e-08, global = 2.20507492035e-09, cumulative = 2.63104015412e-08
Min(U) = (0.0097939694083 -0.000261973435438 0)  Max(U) = (0.0100689717379 8.31894573334e-05 0)
Min(p_rgh) = 29999999.9984  Max(p_rgh) = 30000000
ExecutionTime = 23.65 s
Calculating two-phase advective fluxes
ExecutionTime = 23.71 s
alpha1:  avg = 0.519358407194  min = 0  undershoot = 0  max = 1.00000003263  overshoot = 3.26277724838e-08
alpha1 after clipping:  avg = 0.519358406745
ExecutionTime = 23.71 s

C1[0]:  avg = 400.377855195
C1[0] after clipping:  avg = 400.377855129
C0[0]:  avg = 1.57131859193
C0[0] after clipping:  avg = 1.57131859193
Done YAdvEqns
ExecutionTime = 23.71 s

Done interface reconstruction
ExecutionTime = 23.71 s

Done correcting thermo and transport props
ExecutionTime = 23.72 s

Done gradients and face interpolations for diffusion
ExecutionTime = 23.72 s

Phase-1 Ci = 400.377855129
Min(C1i) = 0  Max(C1i) = 785.709999376
Min(Y1i) = 0  Max(Y1i) = 1
C1i undershoot = 0  C1i overshoot = 0
Y1i undershoot = 0  Y1i overshoot = 0
Phase-1 Ci after clipping = 400.377855129
Min(C1i) = 0  Max(C1i) = 785.709999376
Min(Y1i) = 0  Max(Y1i) = 1
Phase-0 Ci = 1.57131859193
Min(C0i) = 0  Max(C0i) = 19.0416487026
Min(Y0i) = 0  Max(Y0i) = 0.17705730435
C0i undershoot = 0  C0i overshoot = 0
Y0i undershoot = 0  Y0i overshoot = 0
Phase-0 Ci after clipping = 1.57131859193
Min(C0i) = 0  Max(C0i) = 19.0416487026
Min(Y0i) = 0  Max(Y0i) = 0.17705730435
Done YDiffEqns
ExecutionTime = 23.72 s



Courant Number mean: 0.333371612418 max: 0.338371300428
Diffusion Courant Number mean: 0.000407946538218 max: 0.163178615287
deltaT = 0.00333333333333
Time = 0.996667

Outer corrector 1
Phase-1 C[0] = 400.348185679
Min(C1i) = 0  Max(C1i) = 785.709999376
Min(Y1i) = 0  Max(Y1i) = 1
Phase-0 C[0] = 1.60098804174
Min(C0i) = 0  Max(C0i) = 19.192792434
Min(Y0i) = 0  Max(Y0i) = 0.178462702699
Phase-1 C[1] = 7.81090621389
Min(C1i) = 0  Max(C1i) = 58.9553602692
Min(Y1i) = 1.37203293171e-09  Max(Y1i) = 1
Phase-0 C[1] = 83.4247715888
Min(C0i) = 0  Max(C0i) = 177.096113359
Min(Y0i) = 0.821537297301  Max(Y0i) = 1
Done Interfacial Species Transfer Source Terms Calculation
ExecutionTime = 23.72 s

Done interface reconstruction
ExecutionTime = 23.73 s

Min(rho) = 177.096113359  Max(rho) = 900
Min(mu) = 3.5e-05  Max(mu) = 0.0007
Min(muf) = 3.5e-05  Max(muf) = 0.0007

Pressure corrector 1
DICPCG:  Solving for p_rgh, Initial residual = 0.00758267830345, Final residual = 3.40159091896e-16, No Iterations 47
time step continuity errors : sum local = 5.20783926758e-08, global = 5.69920000882e-10, cumulative = 2.68803215421e-08
Min(U) = (0.00979356748487 -0.000262125509938 0)  Max(U) = (0.0100691791534 8.31745667175e-05 0)
Min(p_rgh) = 29999999.9989  Max(p_rgh) = 30000000
ExecutionTime = 23.73 s
Calculating two-phase advective fluxes
ExecutionTime = 23.78 s
alpha1:  avg = 0.519356232227  min = 0  undershoot = 0  max = 1.00000004055  overshoot = 4.05532425418e-08
alpha1 after clipping:  avg = 0.519356231843
ExecutionTime = 23.78 s

C1[0]:  avg = 400.375723718
C1[0] after clipping:  avg = 400.375723686
C0[0]:  avg = 1.57136930349
C0[0] after clipping:  avg = 1.57136930349
Done YAdvEqns
ExecutionTime = 23.78 s

Done interface reconstruction
ExecutionTime = 23.79 s

Done correcting thermo and transport props
ExecutionTime = 23.8 s

Done gradients and face interpolations for diffusion
ExecutionTime = 23.8 s

Phase-1 Ci = 400.375723686
Min(C1i) = 0  Max(C1i) = 785.709999376
Min(Y1i) = 0  Max(Y1i) = 1
C1i undershoot = 0  C1i overshoot = 0
Y1i undershoot = 0  Y1i overshoot = 0
Phase-1 Ci after clipping = 400.375723686
Min(C1i) = 0  Max(C1i) = 785.709999376
Min(Y1i) = 0  Max(Y1i) = 1
Phase-0 Ci = 1.57136930349
Min(C0i) = 0  Max(C0i) = 19.0641341709
Min(Y0i) = 0  Max(Y0i) = 0.177210615831
C0i undershoot = 0  C0i overshoot = 0
Y0i undershoot = 0  Y0i overshoot = 0
Phase-0 Ci after clipping = 1.57136930349
Min(C0i) = 0  Max(C0i) = 19.0641341709
Min(Y0i) = 0  Max(Y0i) = 0.177210615831
Done YDiffEqns
ExecutionTime = 23.8 s



Courant Number mean: 0.333360230864 max: 0.338380018712
Diffusion Courant Number mean: 0.000407946538218 max: 0.163178615287
deltaT = 0.00333333333333
Time = 1

Outer corrector 1
Phase-1 C[0] = 400.346066315
Min(C1i) = 0  Max(C1i) = 785.709999376
Min(Y1i) = 0  Max(Y1i) = 1
Phase-0 C[0] = 1.60102667452
Min(C0i) = 0  Max(C0i) = 19.2127151158
Min(Y0i) = 0  Max(Y0i) = 0.178591749667
Phase-1 C[1] = 7.81129830486
Min(C1i) = 0  Max(C1i) = 58.9666872829
Min(Y1i) = 1.42478140397e-09  Max(Y1i) = 1
Phase-0 C[1] = 83.4251365536
Min(C0i) = 0  Max(C0i) = 177.096113359
Min(Y0i) = 0.821408250333  Max(Y0i) = 1
Done Interfacial Species Transfer Source Terms Calculation
ExecutionTime = 23.8 s

Done interface reconstruction
ExecutionTime = 23.81 s

Min(rho) = 177.096113359  Max(rho) = 900
Min(mu) = 3.5e-05  Max(mu) = 0.0007
Min(muf) = 3.5e-05  Max(muf) = 0.0007

Pressure corrector 1
DICPCG:  Solving for p_rgh, Initial residual = 0.00503552401217, Final residual = 3.37275981779e-16, No Iterations 47
time step continuity errors : sum local = 5.22968657187e-08, global = -1.72150943084e-09, cumulative = 2.51588121113e-08
Min(U) = (0.00979324976304 -0.000262213115838 0)  Max(U) = (0.0100693545068 8.32241648434e-05 0)
Min(p_rgh) = 29999999.9991  Max(p_rgh) = 30000000.0003
ExecutionTime = 23.81 s
Calculating two-phase advective fluxes
ExecutionTime = 23.86 s
alpha1:  avg = 0.519354115071  min = 0  undershoot = 0  max = 1.00000002819  overshoot = 2.81900125465e-08
alpha1 after clipping:  avg = 0.519354114816
ExecutionTime = 23.86 s

C1[0]:  avg = 400.373674514
C1[0] after clipping:  avg = 400.373674513
C0[0]:  avg = 1.57139123216
C0[0] after clipping:  avg = 1.57139123216
Done YAdvEqns
ExecutionTime = 23.86 s

Done interface reconstruction
ExecutionTime = 23.86 s

Done correcting thermo and transport props
ExecutionTime = 23.87 s

Done gradients and face interpolations for diffusion
ExecutionTime = 23.87 s

Phase-1 Ci = 400.373674513
Min(C1i) = 0  Max(C1i) = 785.709999376
Min(Y1i) = 0  Max(Y1i) = 1
C1i undershoot = 0  C1i overshoot = 0
Y1i undershoot = 0  Y1i overshoot = 0
Phase-1 Ci after clipping = 400.373674513
Min(C1i) = 0  Max(C1i) = 785.709999376
Min(Y1i) = 0  Max(Y1i) = 1
Phase-0 Ci = 1.57139123216
Min(C0i) = 0  Max(C0i) = 19.0911356154
Min(Y0i) = 0  Max(Y0i) = 0.177406086174
C0i undershoot = 0  C0i overshoot = 0
Y0i undershoot = 0  Y0i overshoot = 0
Phase-0 Ci after clipping = 1.57139123216
Min(C0i) = 0  Max(C0i) = 19.0911356154
Min(Y0i) = 0  Max(Y0i) = 0.177406086174
Done YDiffEqns
ExecutionTime = 23.87 s



End

